
     RDKit          3D

 42 48  0  0  0  0  0  0  0  0999 V2000
   -7.1222   -2.8374   -0.0766 O   0  0  0  0  0  0  0  0  0  0  0  0
   -5.7873   -2.6439   -0.1900 C   0  0  0  0  0  0  0  0  0  0  0  0
   -4.8487   -3.5915    0.2088 C   0  0  0  0  0  0  0  0  0  0  0  0
   -3.5040   -3.2620    0.3765 C   0  0  0  0  0  0  0  0  0  0  0  0
   -2.5290   -4.1141   -0.1554 O   0  0  0  0  0  0  0  0  0  0  0  0
   -3.3241   -1.9108    0.6394 C   0  0  0  0  0  0  0  0  0  0  0  0
   -3.9666   -1.1536   -0.4311 C   0  0  0  0  0  0  0  0  0  0  0  0
   -5.2991   -1.4569   -0.7342 C   0  0  0  0  0  0  0  0  0  0  0  0
   -3.3131   -0.0441   -1.0461 O   0  0  0  0  0  0  0  0  0  0  0  0
   -2.3068    0.7821   -0.5521 C   0  0  2  0  0  0  0  0  0  0  0  0
   -2.5834    2.2010   -0.5355 C   0  0  0  0  0  0  0  0  0  0  0  0
   -2.2223    3.0125    0.5326 C   0  0  0  0  0  0  0  0  0  0  0  0
   -2.4841    4.3702    0.4420 C   0  0  0  0  0  0  0  0  0  0  0  0
   -3.0312    4.9466   -0.6922 C   0  0  0  0  0  0  0  0  0  0  0  0
   -2.8265    6.2922   -1.0111 O   0  0  0  0  0  0  0  0  0  0  0  0
   -3.5751    4.1182   -1.6633 C   0  0  0  0  0  0  0  0  0  0  0  0
   -4.1316    4.6268   -2.8422 O   0  0  0  0  0  0  0  0  0  0  0  0
   -3.3098    2.7741   -1.5714 C   0  0  0  0  0  0  0  0  0  0  0  0
   -0.9236    0.4512   -0.7255 O   0  0  0  0  0  0  0  0  0  0  0  0
   -0.1457   -0.3417    0.1633 C   0  0  0  0  0  0  0  0  0  0  0  0
    1.2483   -0.3348    0.0883 C   0  0  0  0  0  0  0  0  0  0  0  0
    1.9021   -1.3433    0.7932 C   0  0  0  0  0  0  0  0  0  0  0  0
    1.2085   -2.4794    1.2029 C   0  0  0  0  0  0  0  0  0  0  0  0
   -0.1812   -2.5430    1.1525 C   0  0  0  0  0  0  0  0  0  0  0  0
   -0.9421   -3.0307    2.2281 O   0  0  0  0  0  0  0  0  0  0  0  0
   -0.7762   -1.3406    0.9912 C   0  0  0  0  0  0  0  0  0  0  0  0
   -2.0383   -1.2370    0.0568 C   0  0  2  0  0  0  0  0  0  0  0  0
   -2.2619    0.2453    0.9905 C   0  0  2  0  0  0  0  0  0  0  0  0
   -3.7334    0.2549    1.2400 O   0  0  0  0  0  0  0  0  0  0  0  0
    3.2462   -1.4410    0.4537 O   0  0  0  0  0  0  0  0  0  0  0  0
    3.7413   -0.3314   -0.4796 C   0  0  2  0  0  0  0  0  0  0  0  0
    5.2209   -0.4051    0.1443 C   0  0  0  0  0  0  0  0  0  0  0  0
    5.7859   -1.6277   -0.2115 C   0  0  0  0  0  0  0  0  0  0  0  0
    7.1662   -1.7770   -0.1811 C   0  0  0  0  0  0  0  0  0  0  0  0
    7.9472   -0.6969    0.2052 C   0  0  0  0  0  0  0  0  0  0  0  0
    9.1918   -0.8922    0.8036 O   0  0  0  0  0  0  0  0  0  0  0  0
    7.3899    0.5555    0.0320 C   0  0  0  0  0  0  0  0  0  0  0  0
    8.1682    1.6772    0.3323 O   0  0  0  0  0  0  0  0  0  0  0  0
    6.0273    0.6713   -0.1996 C   0  0  0  0  0  0  0  0  0  0  0  0
    3.2541    0.8684    0.6535 C   0  0  1  0  0  0  0  0  0  0  0  0
    3.8559    1.9618   -0.1921 O   0  0  0  0  0  0  0  0  0  0  0  0
    1.8137    1.0269   -0.1017 C   0  0  0  0  0  0  0  0  0  0  0  0
  1  2  1  0
  2  3  2  0
  3  4  1  0
  4  5  1  0
  4  6  2  0
  6  7  1  0
  7  8  2  0
  7  9  1  0
  9 10  1  0
 10 11  1  1
 11 12  2  0
 12 13  1  0
 13 14  2  0
 14 15  1  0
 14 16  1  0
 16 17  1  0
 16 18  2  0
 10 19  1  0
 19 20  1  0
 20 21  2  0
 21 22  1  0
 22 23  2  0
 23 24  1  0
 24 25  1  0
 24 26  2  0
 27 26  1  1
 27 28  1  0
 28 29  1  6
 22 30  1  0
 30 31  1  0
 31 32  1  1
 32 33  2  0
 33 34  1  0
 34 35  2  0
 35 36  1  0
 35 37  1  0
 37 38  1  0
 37 39  2  0
 31 40  1  0
 40 41  1  6
 40 42  1  0
  8  2  1  0
 28 10  1  0
 39 32  1  0
 27  6  1  0
 18 11  1  0
 26 20  1  0
 42 21  1  0
M  END
>  <zinc_id>  (1) 
ZINC000100829264

>  <smiles>  (1) 
Oc1cc(O)c2c(c1)O[C@]1(c3ccc(O)c(O)c3)Oc3c4c(cc(O)c3[C@@H]2[C@@H]1O)O[C@H](c1ccc(O)c(O)c1)[C@@H](O)C4

$$$$
