REMARK  6 active torsions:
REMARK  status: ('A' for Active; 'I' for Inactive)
REMARK    1  A    between atoms: C_6  and  C_27 
REMARK    2  A    between atoms: C_7  and  O_9 
REMARK    3  A    between atoms: C_10  and  C_11 
REMARK    4  A    between atoms: C_12  and  C_13 
REMARK    5  A    between atoms: C_16  and  C_18 
REMARK    6  A    between atoms: C_31  and  C_32 
ROOT
HETATM    1  O   LIG     1      18.915 -17.360  -0.094  1.00  0.00     0.000 OA
HETATM    2  C   LIG     1      20.108 -16.381  -0.050  1.00  0.00     0.038 A 
HETATM    3  O   LIG     1      21.748 -16.773  -0.065  1.00  0.00     0.000 OA
HETATM    4  C   LIG     1      22.671 -17.713   0.015  1.00  0.00     0.001 A 
HETATM    5  C   LIG     1      24.323 -17.705   0.008  1.00  0.00     0.007 A 
HETATM    6  C   LIG     1      25.098 -18.901   0.071  1.00  0.00     0.100 A 
HETATM    7  C   LIG     1      24.276 -20.248   0.108  1.00  0.00     0.066 A 
HETATM    8  C   LIG     1      22.628 -20.323   0.104  1.00  0.00     0.197 A 
HETATM    9  O   LIG     1      21.726 -20.901   0.201  1.00  0.00    -0.286 OA
HETATM   10  C   LIG     1      21.923 -18.898   0.089  1.00  0.00     0.037 A 
HETATM   11  C   LIG     1      20.427 -18.775   0.005  1.00  0.00     0.013 C 
HETATM   12  C   LIG     1      20.161 -17.017   0.089  1.00  0.00     0.175 A 
HETATM   13  O   LIG     1      18.417 -17.006   0.112  1.00  0.00    -0.219 OA
HETATM   14  O   LIG     1      26.692 -19.017   0.041  1.00  0.00    -0.306 OA
HETATM   15  C   LIG     1      27.279 -17.701  -0.043  1.00  0.00     0.114 C 
HETATM   16  C   LIG     1      26.701 -16.278   0.059  1.00  0.00     0.135 C 
HETATM   17  O   LIG     1      27.415 -14.982  -0.017  1.00  0.00    -0.192 OA
HETATM   18  C   LIG     1      24.994 -16.090  -0.009  1.00  0.00     0.085 C 
ENDROOT
BRANCH   2  19
HETATM   19  C   LIG     1      19.780 -14.698  -0.048  1.00  0.00     0.006 A 
HETATM   20  C   LIG     1      20.208 -13.736   0.048  1.00  0.00     0.010 A 
HETATM   21  C   LIG     1      18.919 -14.019  -0.141  1.00  0.00     0.030 A 
BRANCH  20  22
HETATM   22  C   LIG     1      19.898 -12.127   0.040  1.00  0.00     0.087 A 
HETATM   23  C   LIG     1      19.249 -11.443  -0.062  1.00  0.00     0.244 A 
HETATM   24  O   LIG     1      19.492  -9.848  -0.091  1.00  0.00    -0.193 OA
HETATM   25  C   LIG     1      18.604 -12.425  -0.150  1.00  0.00     0.149 A 
HETATM   26  O   LIG     1      17.945 -11.822  -0.256  1.00  0.00    -0.331 OA
ENDBRANCH  20  22
ENDBRANCH   2  19
BRANCH   1  27
HETATM   27  C   LIG     1      18.140 -18.676  -0.039  1.00  0.00     0.003 A 
HETATM   28  C   LIG     1      18.902 -19.573   0.058  1.00  0.00     0.020 A 
HETATM   29  C   LIG     1      18.689 -21.176   0.034  1.00  0.00     0.115 A 
HETATM   30  C   LIG     1      17.094 -21.566   0.019  1.00  0.00     0.108 A 
HETATM   31  O   LIG     1      19.845 -22.186  -0.014  1.00  0.00    -0.194 OA
HETATM   32  C   LIG     1      15.982 -20.443  -0.017  1.00  0.00     0.115 A 
HETATM   33  O   LIG     1      14.399 -20.672  -0.007  1.00  0.00    -0.194 OA
HETATM   34  C   LIG     1      16.560 -19.035  -0.066  1.00  0.00     0.023 A 
ENDBRANCH   1  27
BRANCH  15  35
HETATM   35  C   LIG     1      29.033 -17.788   0.013  1.00  0.00    -0.013 A 
HETATM   36  C   LIG     1      29.703 -19.238  -0.019  1.00  0.00     0.031 A 
HETATM   37  C   LIG     1      31.340 -19.415  -0.016  1.00  0.00     0.060 A 
HETATM   38  C   LIG     1      32.266 -18.134   0.018  1.00  0.00     0.130 A 
HETATM   39  O   LIG     1      33.742 -18.366   0.072  1.00  0.00    -0.193 OA
HETATM   40  C   LIG     1      31.605 -16.649   0.003  1.00  0.00     0.134 A 
HETATM   41  O   LIG     1      32.528 -15.319   0.030  1.00  0.00    -0.193 OA
HETATM   42  C   LIG     1      29.989 -16.512  -0.018  1.00  0.00     0.080 A 
ENDBRANCH  15  35
TORSDOF 6
