
     RDKit          3D

 42 48  0  0  0  0  0  0  0  0999 V2000
   -5.2218    4.6985   -0.9500 O   0  0  0  0  0  0  0  0  0  0  0  0
   -4.1573    3.9946   -0.8014 C   0  0  0  0  0  0  0  0  0  0  0  0
   -2.9612    4.3124   -1.4410 C   0  0  0  0  0  0  0  0  0  0  0  0
   -1.9439    3.3731   -1.6061 C   0  0  0  0  0  0  0  0  0  0  0  0
   -0.6322    3.7961   -1.3575 O   0  0  0  0  0  0  0  0  0  0  0  0
   -2.3970    2.0655   -1.5019 C   0  0  0  0  0  0  0  0  0  0  0  0
   -3.1170    1.9353   -0.2382 C   0  0  0  0  0  0  0  0  0  0  0  0
   -4.1251    2.8708    0.0261 C   0  0  0  0  0  0  0  0  0  0  0  0
   -2.8982    0.8237    0.6293 O   0  0  0  0  0  0  0  0  0  0  0  0
   -2.4075   -0.4519    0.3373 C   0  0  2  0  0  0  0  0  0  0  0  0
   -3.2464   -1.5680    0.7229 C   0  0  0  0  0  0  0  0  0  0  0  0
   -2.6713   -2.8289    0.8234 C   0  0  0  0  0  0  0  0  0  0  0  0
   -3.2059   -3.8489    1.5640 C   0  0  0  0  0  0  0  0  0  0  0  0
   -4.1519   -3.5574    2.5094 C   0  0  0  0  0  0  0  0  0  0  0  0
   -4.7191   -4.6077    3.2105 O   0  0  0  0  0  0  0  0  0  0  0  0
   -4.8177   -2.3581    2.4029 C   0  0  0  0  0  0  0  0  0  0  0  0
   -5.8297   -2.1062    3.3348 O   0  0  0  0  0  0  0  0  0  0  0  0
   -4.3615   -1.3781    1.5308 C   0  0  0  0  0  0  0  0  0  0  0  0
   -1.0025   -0.7308    0.3497 O   0  0  0  0  0  0  0  0  0  0  0  0
   -0.1181   -0.5883   -0.7559 C   0  0  0  0  0  0  0  0  0  0  0  0
    1.1699   -1.1305   -0.7375 C   0  0  0  0  0  0  0  0  0  0  0  0
    2.1221   -0.5714   -1.5879 C   0  0  0  0  0  0  0  0  0  0  0  0
    1.7804    0.4709   -2.4477 C   0  0  0  0  0  0  0  0  0  0  0  0
    0.5541    1.1224   -2.3437 C   0  0  0  0  0  0  0  0  0  0  0  0
   -0.1270    1.6188   -3.4661 O   0  0  0  0  0  0  0  0  0  0  0  0
   -0.4132    0.3651   -1.7980 C   0  0  0  0  0  0  0  0  0  0  0  0
   -1.4388    1.0403   -0.8136 C   0  0  2  0  0  0  0  0  0  0  0  0
   -2.4006   -0.3585   -1.2943 C   0  0  2  0  0  0  0  0  0  0  0  0
   -3.7628    0.2312   -1.4617 O   0  0  0  0  0  0  0  0  0  0  0  0
    3.4298   -0.5869   -1.1149 O   0  0  0  0  0  0  0  0  0  0  0  0
    3.8561   -1.8678   -0.3975 C   0  0  1  0  0  0  0  0  0  0  0  0
    5.1277   -1.1989    0.3161 C   0  0  0  0  0  0  0  0  0  0  0  0
    6.3488   -1.7552   -0.0088 C   0  0  0  0  0  0  0  0  0  0  0  0
    7.4961   -1.0171    0.2600 C   0  0  0  0  0  0  0  0  0  0  0  0
    7.4122    0.1999    0.9233 C   0  0  0  0  0  0  0  0  0  0  0  0
    8.4985    0.7911    1.5600 O   0  0  0  0  0  0  0  0  0  0  0  0
    6.1685    0.7101    1.2800 C   0  0  0  0  0  0  0  0  0  0  0  0
    6.0631    2.1037    1.3653 O   0  0  0  0  0  0  0  0  0  0  0  0
    5.0805    0.0578    0.7620 C   0  0  0  0  0  0  0  0  0  0  0  0
    2.8922   -1.7057    1.0280 C   0  0  1  0  0  0  0  0  0  0  0  0
    2.6045   -0.2314    0.9478 O   0  0  0  0  0  0  0  0  0  0  0  0
    1.5232   -2.1333    0.2401 C   0  0  0  0  0  0  0  0  0  0  0  0
  1  2  1  0
  2  3  2  0
  3  4  1  0
  4  5  1  0
  4  6  2  0
  6  7  1  0
  7  8  2  0
  7  9  1  0
  9 10  1  0
 10 11  1  6
 11 12  2  0
 12 13  1  0
 13 14  2  0
 14 15  1  0
 14 16  1  0
 16 17  1  0
 16 18  2  0
 10 19  1  0
 19 20  1  0
 20 21  2  0
 21 22  1  0
 22 23  2  0
 23 24  1  0
 24 25  1  0
 24 26  2  0
 27 26  1  6
 27 28  1  0
 28 29  1  1
 22 30  1  0
 30 31  1  0
 31 32  1  1
 32 33  2  0
 33 34  1  0
 34 35  2  0
 35 36  1  0
 35 37  1  0
 37 38  1  0
 37 39  2  0
 31 40  1  0
 40 41  1  6
 40 42  1  0
  8  2  1  0
 28 10  1  0
 39 32  1  0
 27  6  1  0
 18 11  1  0
 26 20  1  0
 42 21  1  0
M  END
>  <zinc_id>  (1) 
ZINC000230101161

>  <smiles>  (1) 
Oc1cc(O)c2c(c1)O[C@]1(c3ccc(O)c(O)c3)Oc3c4c(cc(O)c3[C@@H]2[C@@H]1O)O[C@@H](c1ccc(O)c(O)c1)[C@@H](O)C4

$$$$
