MODEL 1
REMARK VINA RESULT:      -9.9      0.000      0.000
REMARK  6 active torsions:
REMARK  status: ('A' for Active; 'I' for Inactive)
REMARK    1  A    between atoms: C_10  and  C_11 
REMARK    2  A    between atoms: C_10  and  O_19 
REMARK    3  A    between atoms: C_20  and  C_21 
REMARK    4  A    between atoms: C_23  and  C_24 
REMARK    5  A    between atoms: C_26  and  C_27 
REMARK    6  A    between atoms: C_31  and  C_32 
ROOT
HETATM    1  O   LIG     1     -39.095 -30.033  -9.941  1.00  0.00    -0.190 OA
HETATM    2  C   LIG     1     -39.877 -30.015 -11.285  1.00  0.00     0.133 C 
HETATM    3  C   LIG     1     -41.273 -29.549 -11.628  1.00  0.00     0.051 C 
HETATM    4  C   LIG     1     -41.914 -29.678 -13.184  1.00  0.00     0.118 C 
HETATM    5  O   LIG     1     -43.444 -29.058 -13.501  1.00  0.00    -0.194 OA
HETATM    6  C   LIG     1     -40.868 -30.413 -14.287  1.00  0.00     0.090 A 
HETATM    7  C   LIG     1     -40.025 -30.597 -14.035  1.00  0.00    -0.014 A 
HETATM    8  C   LIG     1     -39.388 -30.458 -12.490  1.00  0.00     0.024 C 
HETATM    9  O   LIG     1     -39.732 -30.973 -15.334  1.00  0.00     0.000 OA
HETATM   10  C   LIG     1     -39.686 -31.431 -16.936  1.00  0.00     0.063 C 
HETATM   11  C   LIG     1     -41.382 -30.535 -15.916  1.00  0.00     0.007 C 
HETATM   12  C   LIG     1     -39.792 -31.514 -16.810  1.00  0.00     0.174 C 
HETATM   13  O   LIG     1     -38.652 -31.678 -15.413  1.00  0.00    -0.219 OA
ENDROOT
BRANCH  10  14
HETATM   14  C   LIG     1     -38.317 -32.174 -17.624  1.00  0.00    -0.016 A 
HETATM   15  C   LIG     1     -36.955 -31.225 -17.941  1.00  0.00    -0.002 A 
HETATM   16  C   LIG     1     -35.718 -31.640 -18.463  1.00  0.00     0.030 A 
HETATM   17  C   LIG     1     -35.909 -32.829 -18.574  1.00  0.00     0.170 A 
HETATM   18  O   LIG     1     -34.635 -33.275 -19.123  1.00  0.00    -0.187 OA
HETATM   19  C   LIG     1     -37.192 -33.871 -18.312  1.00  0.00     0.221 A 
HETATM   20  O   LIG     1     -37.330 -35.129 -18.461  1.00  0.00    -0.284 OA
HETATM   21  C   LIG     1     -38.379 -33.537 -17.840  1.00  0.00     0.040 A 
ENDBRANCH  10  14
BRANCH  10  22
HETATM   22  O   LIG     1     -41.012 -31.123 -18.032  1.00  0.00     0.000 OA
HETATM   23  C   LIG     1     -41.554 -30.718 -18.895  1.00  0.00     0.002 A 
HETATM   24  C   LIG     1     -40.435 -30.360 -19.225  1.00  0.00     0.165 A 
HETATM   25  C   LIG     1     -40.451 -29.744 -20.591  1.00  0.00     0.083 A 
HETATM   26  O   LIG     1     -39.475 -29.665 -20.262  1.00  0.00    -0.328 OA
BRANCH  23  27
HETATM   27  C   LIG     1     -43.041 -30.546 -19.709  1.00  0.00    -0.045 A 
HETATM   28  C   LIG     1     -44.031 -29.682 -19.405  1.00  0.00     0.025 A 
HETATM   29  C   LIG     1     -43.535 -29.039 -18.338  1.00  0.00     0.054 A 
HETATM   30  O   LIG     1     -45.445 -29.044 -19.780  1.00  0.00     0.000 OA
HETATM   31  C   LIG     1     -44.943 -30.097 -20.763  1.00  0.00     0.012 A 
HETATM   32  O   LIG     1     -44.412 -29.033 -19.369  1.00  0.00     0.000 OA
HETATM   33  C   LIG     1     -46.074 -29.849 -21.073  1.00  0.00     0.023 A 
HETATM   34  C   LIG     1     -43.540 -31.143 -20.750  1.00  0.00     0.022 A 
BRANCH  33  35
HETATM   35  C   LIG     1     -47.338 -28.655 -20.842  1.00  0.00    -0.042 A 
HETATM   36  C   LIG     1     -47.258 -27.046 -21.127  1.00  0.00    -0.027 A 
HETATM   37  C   LIG     1     -48.554 -26.027 -20.903  1.00  0.00     0.081 A 
HETATM   38  C   LIG     1     -49.839 -26.597 -20.415  1.00  0.00     0.134 A 
HETATM   39  O   LIG     1     -50.939 -25.586 -20.209  1.00  0.00    -0.193 OA
HETATM   40  C   LIG     1     -49.858 -28.214 -20.143  1.00  0.00     0.134 A 
HETATM   41  O   LIG     1     -51.342 -28.887 -19.640  1.00  0.00    -0.193 OA
HETATM   42  C   LIG     1     -48.688 -29.203 -20.361  1.00  0.00     0.078 A 
ENDBRANCH  33  35
ENDBRANCH  23  27
ENDBRANCH  10  22
TORSDOF 6
ENDMDL
MODEL 2
REMARK VINA RESULT:      -9.7      2.625     10.435
REMARK  6 active torsions:
REMARK  status: ('A' for Active; 'I' for Inactive)
REMARK    1  A    between atoms: C_10  and  C_11 
REMARK    2  A    between atoms: C_10  and  O_19 
REMARK    3  A    between atoms: C_20  and  C_21 
REMARK    4  A    between atoms: C_23  and  C_24 
REMARK    5  A    between atoms: C_26  and  C_27 
REMARK    6  A    between atoms: C_31  and  C_32 
ROOT
HETATM    1  O   LIG     1     -48.481 -28.680 -22.849  1.00  0.00    -0.190 OA
HETATM    2  C   LIG     1     -47.183 -29.126 -22.115  1.00  0.00     0.133 C 
HETATM    3  C   LIG     1     -46.091 -30.093 -22.508  1.00  0.00     0.051 C 
HETATM    4  C   LIG     1     -44.785 -30.443 -21.497  1.00  0.00     0.118 C 
HETATM    5  O   LIG     1     -43.568 -31.465 -22.045  1.00  0.00    -0.194 OA
HETATM    6  C   LIG     1     -44.851 -29.650 -20.008  1.00  0.00     0.090 A 
HETATM    7  C   LIG     1     -45.489 -29.031 -19.870  1.00  0.00    -0.014 A 
HETATM    8  C   LIG     1     -46.780 -28.679 -20.881  1.00  0.00     0.024 C 
HETATM    9  O   LIG     1     -44.898 -28.710 -18.661  1.00  0.00     0.000 OA
HETATM   10  C   LIG     1     -44.032 -28.590 -17.241  1.00  0.00     0.063 C 
HETATM   11  C   LIG     1     -43.543 -29.871 -18.926  1.00  0.00     0.007 C 
HETATM   12  C   LIG     1     -44.124 -28.741 -17.291  1.00  0.00     0.174 C 
HETATM   13  O   LIG     1     -45.691 -28.053 -17.881  1.00  0.00    -0.219 OA
ENDROOT
BRANCH  10  14
HETATM   14  C   LIG     1     -44.535 -27.588 -15.959  1.00  0.00    -0.016 A 
HETATM   15  C   LIG     1     -44.439 -25.912 -16.158  1.00  0.00    -0.002 A 
HETATM   16  C   LIG     1     -44.835 -24.913 -15.251  1.00  0.00     0.030 A 
HETATM   17  C   LIG     1     -45.275 -25.590 -14.350  1.00  0.00     0.170 A 
HETATM   18  O   LIG     1     -45.684 -24.567 -13.396  1.00  0.00    -0.187 OA
HETATM   19  C   LIG     1     -45.414 -27.227 -14.031  1.00  0.00     0.221 A 
HETATM   20  O   LIG     1     -45.885 -27.880 -13.044  1.00  0.00    -0.284 OA
HETATM   21  C   LIG     1     -45.046 -28.207 -14.835  1.00  0.00     0.040 A 
ENDBRANCH  10  14
BRANCH  10  22
HETATM   22  O   LIG     1     -42.521 -29.433 -16.996  1.00  0.00     0.000 OA
HETATM   23  C   LIG     1     -41.500 -29.622 -16.646  1.00  0.00     0.002 A 
HETATM   24  C   LIG     1     -41.698 -28.594 -16.017  1.00  0.00     0.165 A 
HETATM   25  C   LIG     1     -40.553 -28.301 -15.096  1.00  0.00     0.083 A 
HETATM   26  O   LIG     1     -41.211 -27.513 -14.981  1.00  0.00    -0.328 OA
BRANCH  23  27
HETATM   27  C   LIG     1     -40.140 -30.650 -16.659  1.00  0.00    -0.045 A 
HETATM   28  C   LIG     1     -39.460 -31.073 -17.743  1.00  0.00     0.025 A 
HETATM   29  C   LIG     1     -40.126 -30.487 -18.747  1.00  0.00     0.054 A 
HETATM   30  O   LIG     1     -38.211 -31.864 -18.344  1.00  0.00     0.000 OA
HETATM   31  C   LIG     1     -38.275 -31.843 -16.820  1.00  0.00     0.012 A 
HETATM   32  O   LIG     1     -38.976 -31.058 -18.320  1.00  0.00     0.000 OA
HETATM   33  C   LIG     1     -37.404 -32.611 -17.116  1.00  0.00     0.023 A 
HETATM   34  C   LIG     1     -39.468 -31.218 -15.702  1.00  0.00     0.022 A 
BRANCH  33  35
HETATM   35  C   LIG     1     -36.375 -33.080 -18.457  1.00  0.00    -0.042 A 
HETATM   36  C   LIG     1     -34.858 -32.561 -18.782  1.00  0.00    -0.027 A 
HETATM   37  C   LIG     1     -33.972 -33.123 -20.074  1.00  0.00     0.081 A 
HETATM   38  C   LIG     1     -34.585 -34.134 -20.979  1.00  0.00     0.134 A 
HETATM   39  O   LIG     1     -33.716 -34.550 -22.139  1.00  0.00    -0.193 OA
HETATM   40  C   LIG     1     -36.108 -34.612 -20.606  1.00  0.00     0.134 A 
HETATM   41  O   LIG     1     -36.797 -35.813 -21.601  1.00  0.00    -0.193 OA
HETATM   42  C   LIG     1     -36.959 -34.137 -19.403  1.00  0.00     0.078 A 
ENDBRANCH  33  35
ENDBRANCH  23  27
ENDBRANCH  10  22
TORSDOF 6
ENDMDL
MODEL 3
REMARK VINA RESULT:      -9.4      2.741     10.979
REMARK  6 active torsions:
REMARK  status: ('A' for Active; 'I' for Inactive)
REMARK    1  A    between atoms: C_10  and  C_11 
REMARK    2  A    between atoms: C_10  and  O_19 
REMARK    3  A    between atoms: C_20  and  C_21 
REMARK    4  A    between atoms: C_23  and  C_24 
REMARK    5  A    between atoms: C_26  and  C_27 
REMARK    6  A    between atoms: C_31  and  C_32 
ROOT
HETATM    1  O   LIG     1     -38.806 -34.877 -21.664  1.00  0.00    -0.190 OA
HETATM    2  C   LIG     1     -38.804 -34.085 -20.325  1.00  0.00     0.133 C 
HETATM    3  C   LIG     1     -37.804 -34.031 -19.194  1.00  0.00     0.051 C 
HETATM    4  C   LIG     1     -38.060 -33.108 -17.802  1.00  0.00     0.118 C 
HETATM    5  O   LIG     1     -36.860 -33.035 -16.629  1.00  0.00    -0.194 OA
HETATM    6  C   LIG     1     -39.545 -32.305 -17.789  1.00  0.00     0.090 A 
HETATM    7  C   LIG     1     -40.058 -32.320 -18.527  1.00  0.00    -0.014 A 
HETATM    8  C   LIG     1     -39.796 -33.230 -19.911  1.00  0.00     0.024 C 
HETATM    9  O   LIG     1     -40.923 -31.421 -17.929  1.00  0.00     0.000 OA
HETATM   10  C   LIG     1     -41.817 -30.412 -16.947  1.00  0.00     0.063 C 
HETATM   11  C   LIG     1     -39.886 -31.280 -16.460  1.00  0.00     0.007 C 
HETATM   12  C   LIG     1     -41.786 -30.589 -16.909  1.00  0.00     0.174 C 
HETATM   13  O   LIG     1     -42.076 -31.382 -18.511  1.00  0.00    -0.219 OA
ENDROOT
BRANCH  10  14
HETATM   14  C   LIG     1     -43.348 -29.828 -17.409  1.00  0.00    -0.016 A 
HETATM   15  C   LIG     1     -44.704 -30.792 -17.115  1.00  0.00    -0.002 A 
HETATM   16  C   LIG     1     -46.052 -30.488 -17.377  1.00  0.00     0.030 A 
HETATM   17  C   LIG     1     -45.946 -29.368 -17.820  1.00  0.00     0.170 A 
HETATM   18  O   LIG     1     -47.337 -29.039 -18.105  1.00  0.00    -0.187 OA
HETATM   19  C   LIG     1     -44.684 -28.325 -18.168  1.00  0.00     0.221 A 
HETATM   20  O   LIG     1     -44.642 -27.146 -18.650  1.00  0.00    -0.284 OA
HETATM   21  C   LIG     1     -43.403 -28.561 -17.959  1.00  0.00     0.040 A 
ENDBRANCH  10  14
BRANCH  10  22
HETATM   22  O   LIG     1     -41.218 -29.837 -15.410  1.00  0.00     0.000 OA
HETATM   23  C   LIG     1     -41.229 -29.380 -14.413  1.00  0.00     0.002 A 
HETATM   24  C   LIG     1     -42.437 -29.407 -14.592  1.00  0.00     0.165 A 
HETATM   25  C   LIG     1     -43.169 -28.957 -13.364  1.00  0.00     0.083 A 
HETATM   26  O   LIG     1     -43.899 -29.139 -14.072  1.00  0.00    -0.328 OA
BRANCH  23  27
HETATM   27  C   LIG     1     -40.336 -28.857 -13.060  1.00  0.00    -0.045 A 
HETATM   28  C   LIG     1     -39.819 -29.633 -12.086  1.00  0.00     0.025 A 
HETATM   29  C   LIG     1     -40.192 -30.862 -12.470  1.00  0.00     0.054 A 
HETATM   30  O   LIG     1     -38.922 -29.753 -10.772  1.00  0.00     0.000 OA
HETATM   31  C   LIG     1     -39.026 -28.342 -11.343  1.00  0.00     0.012 A 
HETATM   32  O   LIG     1     -39.342 -30.102 -11.739  1.00  0.00     0.000 OA
HETATM   33  C   LIG     1     -38.483 -28.243 -10.278  1.00  0.00     0.023 A 
HETATM   34  C   LIG     1     -39.949 -27.678 -12.673  1.00  0.00     0.022 A 
BRANCH  33  35
HETATM   35  C   LIG     1     -37.649 -29.190  -9.061  1.00  0.00    -0.042 A 
HETATM   36  C   LIG     1     -36.320 -30.125  -9.258  1.00  0.00    -0.027 A 
HETATM   37  C   LIG     1     -35.602 -30.943  -8.000  1.00  0.00     0.081 A 
HETATM   38  C   LIG     1     -36.193 -30.830  -6.639  1.00  0.00     0.134 A 
HETATM   39  O   LIG     1     -35.490 -31.639  -5.577  1.00  0.00    -0.193 OA
HETATM   40  C   LIG     1     -37.526 -29.884  -6.504  1.00  0.00     0.134 A 
HETATM   41  O   LIG     1     -38.176 -29.699  -4.939  1.00  0.00    -0.193 OA
HETATM   42  C   LIG     1     -38.213 -29.086  -7.638  1.00  0.00     0.078 A 
ENDBRANCH  33  35
ENDBRANCH  23  27
ENDBRANCH  10  22
TORSDOF 6
ENDMDL
MODEL 4
REMARK VINA RESULT:      -9.4      2.625     10.327
REMARK  6 active torsions:
REMARK  status: ('A' for Active; 'I' for Inactive)
REMARK    1  A    between atoms: C_10  and  C_11 
REMARK    2  A    between atoms: C_10  and  O_19 
REMARK    3  A    between atoms: C_20  and  C_21 
REMARK    4  A    between atoms: C_23  and  C_24 
REMARK    5  A    between atoms: C_26  and  C_27 
REMARK    6  A    between atoms: C_31  and  C_32 
ROOT
HETATM    1  O   LIG     1     -48.491 -27.255 -21.603  1.00  0.00    -0.190 OA
HETATM    2  C   LIG     1     -47.196 -27.860 -20.987  1.00  0.00     0.133 C 
HETATM    3  C   LIG     1     -46.156 -28.795 -21.558  1.00  0.00     0.051 C 
HETATM    4  C   LIG     1     -44.842 -29.348 -20.653  1.00  0.00     0.118 C 
HETATM    5  O   LIG     1     -43.684 -30.318 -21.389  1.00  0.00    -0.194 OA
HETATM    6  C   LIG     1     -44.838 -28.793 -19.059  1.00  0.00     0.090 A 
HETATM    7  C   LIG     1     -45.445 -28.179 -18.807  1.00  0.00    -0.014 A 
HETATM    8  C   LIG     1     -46.744 -27.625 -19.712  1.00  0.00     0.024 C 
HETATM    9  O   LIG     1     -44.812 -28.073 -17.582  1.00  0.00     0.000 OA
HETATM   10  C   LIG     1     -43.907 -28.208 -16.188  1.00  0.00     0.063 C 
HETATM   11  C   LIG     1     -43.514 -29.230 -18.064  1.00  0.00     0.007 C 
HETATM   12  C   LIG     1     -44.007 -28.346 -16.257  1.00  0.00     0.174 C 
HETATM   13  O   LIG     1     -45.557 -27.514 -16.686  1.00  0.00    -0.219 OA
ENDROOT
BRANCH  10  14
HETATM   14  C   LIG     1     -44.336 -27.398 -14.752  1.00  0.00    -0.016 A 
HETATM   15  C   LIG     1     -44.987 -28.300 -13.480  1.00  0.00    -0.002 A 
HETATM   16  C   LIG     1     -45.368 -27.842 -12.206  1.00  0.00     0.030 A 
HETATM   17  C   LIG     1     -45.065 -26.674 -12.288  1.00  0.00     0.170 A 
HETATM   18  O   LIG     1     -45.461 -26.182 -10.974  1.00  0.00    -0.187 OA
HETATM   19  C   LIG     1     -44.436 -25.674 -13.472  1.00  0.00     0.221 A 
HETATM   20  O   LIG     1     -44.147 -24.433 -13.495  1.00  0.00    -0.284 OA
HETATM   21  C   LIG     1     -44.076 -26.043 -14.688  1.00  0.00     0.040 A 
ENDBRANCH  10  14
BRANCH  10  22
HETATM   22  O   LIG     1     -42.428 -29.136 -16.122  1.00  0.00     0.000 OA
HETATM   23  C   LIG     1     -41.372 -29.367 -15.939  1.00  0.00     0.002 A 
HETATM   24  C   LIG     1     -41.393 -28.270 -15.403  1.00  0.00     0.165 A 
HETATM   25  C   LIG     1     -40.083 -27.977 -14.736  1.00  0.00     0.083 A 
HETATM   26  O   LIG     1     -40.662 -27.133 -14.595  1.00  0.00    -0.328 OA
BRANCH  23  27
HETATM   27  C   LIG     1     -40.100 -30.492 -16.078  1.00  0.00    -0.045 A 
HETATM   28  C   LIG     1     -39.517 -30.913 -17.219  1.00  0.00     0.025 A 
HETATM   29  C   LIG     1     -40.191 -30.231 -18.155  1.00  0.00     0.054 A 
HETATM   30  O   LIG     1     -38.369 -31.765 -17.928  1.00  0.00     0.000 OA
HETATM   31  C   LIG     1     -38.345 -31.813 -16.403  1.00  0.00     0.012 A 
HETATM   32  O   LIG     1     -39.066 -30.906 -17.822  1.00  0.00     0.000 OA
HETATM   33  C   LIG     1     -37.555 -32.629 -16.785  1.00  0.00     0.023 A 
HETATM   34  C   LIG     1     -39.421 -31.155 -15.190  1.00  0.00     0.022 A 
BRANCH  33  35
HETATM   35  C   LIG     1     -36.643 -33.109 -18.203  1.00  0.00    -0.042 A 
HETATM   36  C   LIG     1     -35.189 -32.543 -18.696  1.00  0.00    -0.027 A 
HETATM   37  C   LIG     1     -34.410 -33.119 -20.049  1.00  0.00     0.081 A 
HETATM   38  C   LIG     1     -35.064 -34.189 -20.852  1.00  0.00     0.134 A 
HETATM   39  O   LIG     1     -34.295 -34.615 -22.078  1.00  0.00    -0.193 OA
HETATM   40  C   LIG     1     -36.521 -34.713 -20.313  1.00  0.00     0.134 A 
HETATM   41  O   LIG     1     -37.251 -35.979 -21.191  1.00  0.00    -0.193 OA
HETATM   42  C   LIG     1     -37.270 -34.225 -19.049  1.00  0.00     0.078 A 
ENDBRANCH  33  35
ENDBRANCH  23  27
ENDBRANCH  10  22
TORSDOF 6
ENDMDL
MODEL 5
REMARK VINA RESULT:      -9.4      2.922      9.938
REMARK  6 active torsions:
REMARK  status: ('A' for Active; 'I' for Inactive)
REMARK    1  A    between atoms: C_10  and  C_11 
REMARK    2  A    between atoms: C_10  and  O_19 
REMARK    3  A    between atoms: C_20  and  C_21 
REMARK    4  A    between atoms: C_23  and  C_24 
REMARK    5  A    between atoms: C_26  and  C_27 
REMARK    6  A    between atoms: C_31  and  C_32 
ROOT
HETATM    1  O   LIG     1     -48.410 -22.436 -15.752  1.00  0.00    -0.190 OA
HETATM    2  C   LIG     1     -47.301 -23.527 -15.742  1.00  0.00     0.133 C 
HETATM    3  C   LIG     1     -46.067 -23.695 -14.888  1.00  0.00     0.051 C 
HETATM    4  C   LIG     1     -44.978 -24.967 -15.109  1.00  0.00     0.118 C 
HETATM    5  O   LIG     1     -43.675 -25.129 -14.060  1.00  0.00    -0.194 OA
HETATM    6  C   LIG     1     -45.383 -25.986 -16.392  1.00  0.00     0.090 A 
HETATM    7  C   LIG     1     -46.171 -25.873 -16.810  1.00  0.00    -0.014 A 
HETATM    8  C   LIG     1     -47.254 -24.613 -16.581  1.00  0.00     0.024 C 
HETATM    9  O   LIG     1     -45.937 -27.026 -17.538  1.00  0.00     0.000 OA
HETATM   10  C   LIG     1     -45.363 -28.385 -18.315  1.00  0.00     0.063 C 
HETATM   11  C   LIG     1     -44.391 -27.355 -16.668  1.00  0.00     0.007 C 
HETATM   12  C   LIG     1     -45.281 -28.221 -18.325  1.00  0.00     0.174 C 
HETATM   13  O   LIG     1     -46.688 -27.111 -18.585  1.00  0.00    -0.219 OA
ENDROOT
BRANCH  10  14
HETATM   14  C   LIG     1     -46.183 -29.084 -19.634  1.00  0.00    -0.016 A 
HETATM   15  C   LIG     1     -45.919 -28.449 -21.178  1.00  0.00    -0.002 A 
HETATM   16  C   LIG     1     -46.458 -28.897 -22.397  1.00  0.00     0.030 A 
HETATM   17  C   LIG     1     -47.102 -29.849 -22.021  1.00  0.00     0.170 A 
HETATM   18  O   LIG     1     -47.675 -30.322 -23.275  1.00  0.00    -0.187 OA
HETATM   19  C   LIG     1     -47.450 -30.561 -20.547  1.00  0.00     0.221 A 
HETATM   20  O   LIG     1     -48.154 -31.570 -20.217  1.00  0.00    -0.284 OA
HETATM   21  C   LIG     1     -46.988 -30.176 -19.372  1.00  0.00     0.040 A 
ENDBRANCH  10  14
BRANCH  10  22
HETATM   22  O   LIG     1     -43.919 -29.219 -17.792  1.00  0.00     0.000 OA
HETATM   23  C   LIG     1     -43.293 -29.953 -17.272  1.00  0.00     0.002 A 
HETATM   24  C   LIG     1     -44.377 -30.452 -17.012  1.00  0.00     0.165 A 
HETATM   25  C   LIG     1     -44.206 -31.761 -16.302  1.00  0.00     0.083 A 
HETATM   26  O   LIG     1     -45.226 -31.602 -16.351  1.00  0.00    -0.328 OA
BRANCH  23  27
HETATM   27  C   LIG     1     -41.722 -30.489 -16.886  1.00  0.00    -0.045 A 
HETATM   28  C   LIG     1     -40.897 -31.203 -17.677  1.00  0.00     0.025 A 
HETATM   29  C   LIG     1     -41.629 -31.360 -18.789  1.00  0.00     0.054 A 
HETATM   30  O   LIG     1     -39.458 -31.852 -17.912  1.00  0.00     0.000 OA
HETATM   31  C   LIG     1     -39.613 -31.112 -16.586  1.00  0.00     0.012 A 
HETATM   32  O   LIG     1     -40.399 -31.350 -18.224  1.00  0.00     0.000 OA
HETATM   33  C   LIG     1     -38.562 -31.687 -16.538  1.00  0.00     0.023 A 
HETATM   34  C   LIG     1     -40.986 -30.339 -15.825  1.00  0.00     0.022 A 
BRANCH  33  35
HETATM   35  C   LIG     1     -37.373 -32.477 -17.557  1.00  0.00    -0.042 A 
HETATM   36  C   LIG     1     -37.455 -33.974 -18.213  1.00  0.00    -0.027 A 
HETATM   37  C   LIG     1     -36.267 -34.588 -19.203  1.00  0.00     0.081 A 
HETATM   38  C   LIG     1     -35.074 -33.748 -19.500  1.00  0.00     0.134 A 
HETATM   39  O   LIG     1     -34.039 -34.411 -20.375  1.00  0.00    -0.193 OA
HETATM   40  C   LIG     1     -35.045 -32.260 -18.811  1.00  0.00     0.134 A 
HETATM   41  O   LIG     1     -33.713 -31.267 -19.192  1.00  0.00    -0.193 OA
HETATM   42  C   LIG     1     -36.137 -31.638 -17.907  1.00  0.00     0.078 A 
ENDBRANCH  33  35
ENDBRANCH  23  27
ENDBRANCH  10  22
TORSDOF 6
ENDMDL
MODEL 6
REMARK VINA RESULT:      -9.0     10.482     14.622
REMARK  6 active torsions:
REMARK  status: ('A' for Active; 'I' for Inactive)
REMARK    1  A    between atoms: C_10  and  C_11 
REMARK    2  A    between atoms: C_10  and  O_19 
REMARK    3  A    between atoms: C_20  and  C_21 
REMARK    4  A    between atoms: C_23  and  C_24 
REMARK    5  A    between atoms: C_26  and  C_27 
REMARK    6  A    between atoms: C_31  and  C_32 
ROOT
HETATM    1  O   LIG     1     -33.885 -20.040 -30.850  1.00  0.00    -0.190 OA
HETATM    2  C   LIG     1     -34.528 -21.341 -30.290  1.00  0.00     0.133 C 
HETATM    3  C   LIG     1     -34.215 -22.168 -29.065  1.00  0.00     0.051 C 
HETATM    4  C   LIG     1     -35.049 -23.589 -28.694  1.00  0.00     0.118 C 
HETATM    5  O   LIG     1     -34.697 -24.404 -27.268  1.00  0.00    -0.194 OA
HETATM    6  C   LIG     1     -36.217 -24.005 -29.840  1.00  0.00     0.090 A 
HETATM    7  C   LIG     1     -36.404 -23.429 -30.505  1.00  0.00    -0.014 A 
HETATM    8  C   LIG     1     -35.579 -22.014 -30.864  1.00  0.00     0.024 C 
HETATM    9  O   LIG     1     -37.447 -24.246 -30.904  1.00  0.00     0.000 OA
HETATM   10  C   LIG     1     -38.569 -25.441 -31.202  1.00  0.00     0.063 C 
HETATM   11  C   LIG     1     -37.178 -25.390 -29.535  1.00  0.00     0.007 C 
HETATM   12  C   LIG     1     -38.388 -25.468 -31.214  1.00  0.00     0.174 C 
HETATM   13  O   LIG     1     -37.843 -23.990 -32.107  1.00  0.00    -0.219 OA
ENDROOT
BRANCH  10  14
HETATM   14  C   LIG     1     -39.580 -25.408 -32.572  1.00  0.00    -0.016 A 
HETATM   15  C   LIG     1     -39.088 -26.238 -33.960  1.00  0.00    -0.002 A 
HETATM   16  C   LIG     1     -39.782 -26.372 -35.176  1.00  0.00     0.030 A 
HETATM   17  C   LIG     1     -40.801 -25.774 -34.918  1.00  0.00     0.170 A 
HETATM   18  O   LIG     1     -41.531 -25.897 -36.174  1.00  0.00    -0.187 OA
HETATM   19  C   LIG     1     -41.395 -24.913 -33.612  1.00  0.00     0.221 A 
HETATM   20  O   LIG     1     -42.489 -24.291 -33.409  1.00  0.00    -0.284 OA
HETATM   21  C   LIG     1     -40.784 -24.740 -32.455  1.00  0.00     0.040 A 
ENDBRANCH  10  14
BRANCH  10  22
HETATM   22  O   LIG     1     -38.828 -26.773 -30.101  1.00  0.00     0.000 OA
HETATM   23  C   LIG     1     -39.281 -27.676 -29.676  1.00  0.00     0.002 A 
HETATM   24  C   LIG     1     -39.894 -27.670 -30.732  1.00  0.00     0.165 A 
HETATM   25  C   LIG     1     -40.742 -28.899 -30.866  1.00  0.00     0.083 A 
HETATM   26  O   LIG     1     -40.935 -28.335 -31.710  1.00  0.00    -0.328 OA
BRANCH  23  27
HETATM   27  C   LIG     1     -39.327 -28.796 -28.392  1.00  0.00    -0.045 A 
HETATM   28  C   LIG     1     -40.035 -28.685 -27.251  1.00  0.00     0.025 A 
HETATM   29  C   LIG     1     -40.653 -27.506 -27.409  1.00  0.00     0.054 A 
HETATM   30  O   LIG     1     -40.519 -29.339 -25.878  1.00  0.00     0.000 OA
HETATM   31  C   LIG     1     -39.613 -30.231 -26.723  1.00  0.00     0.012 A 
HETATM   32  O   LIG     1     -40.627 -28.707 -26.785  1.00  0.00     0.000 OA
HETATM   33  C   LIG     1     -39.741 -30.777 -25.663  1.00  0.00     0.023 A 
HETATM   34  C   LIG     1     -38.752 -29.949 -28.220  1.00  0.00     0.022 A 
BRANCH  33  35
HETATM   35  C   LIG     1     -40.747 -30.783 -24.226  1.00  0.00    -0.042 A 
HETATM   36  C   LIG     1     -42.273 -31.354 -24.076  1.00  0.00    -0.027 A 
HETATM   37  C   LIG     1     -43.102 -31.335 -22.634  1.00  0.00     0.081 A 
HETATM   38  C   LIG     1     -42.436 -30.769 -21.429  1.00  0.00     0.134 A 
HETATM   39  O   LIG     1     -43.285 -30.764 -20.183  1.00  0.00    -0.193 OA
HETATM   40  C   LIG     1     -40.909 -30.208 -21.642  1.00  0.00     0.134 A 
HETATM   41  O   LIG     1     -40.115 -29.612 -20.256  1.00  0.00    -0.193 OA
HETATM   42  C   LIG     1     -40.091 -30.228 -22.955  1.00  0.00     0.078 A 
ENDBRANCH  33  35
ENDBRANCH  23  27
ENDBRANCH  10  22
TORSDOF 6
ENDMDL
MODEL 7
REMARK VINA RESULT:      -9.0      3.744      9.656
REMARK  6 active torsions:
REMARK  status: ('A' for Active; 'I' for Inactive)
REMARK    1  A    between atoms: C_10  and  C_11 
REMARK    2  A    between atoms: C_10  and  O_19 
REMARK    3  A    between atoms: C_20  and  C_21 
REMARK    4  A    between atoms: C_23  and  C_24 
REMARK    5  A    between atoms: C_26  and  C_27 
REMARK    6  A    between atoms: C_31  and  C_32 
ROOT
HETATM    1  O   LIG     1     -35.408 -35.617 -23.409  1.00  0.00    -0.190 OA
HETATM    2  C   LIG     1     -36.149 -34.998 -22.189  1.00  0.00     0.133 C 
HETATM    3  C   LIG     1     -35.667 -34.625 -20.807  1.00  0.00     0.051 C 
HETATM    4  C   LIG     1     -36.699 -33.997 -19.627  1.00  0.00     0.118 C 
HETATM    5  O   LIG     1     -36.066 -33.527 -18.143  1.00  0.00    -0.194 OA
HETATM    6  C   LIG     1     -38.305 -33.875 -20.130  1.00  0.00     0.090 A 
HETATM    7  C   LIG     1     -38.509 -34.043 -20.990  1.00  0.00    -0.014 A 
HETATM    8  C   LIG     1     -37.479 -34.659 -22.161  1.00  0.00     0.024 C 
HETATM    9  O   LIG     1     -39.806 -33.626 -20.751  1.00  0.00     0.000 OA
HETATM   10  C   LIG     1     -41.293 -33.149 -20.165  1.00  0.00     0.063 C 
HETATM   11  C   LIG     1     -39.433 -33.184 -19.042  1.00  0.00     0.007 C 
HETATM   12  C   LIG     1     -41.205 -33.300 -20.107  1.00  0.00     0.174 C 
HETATM   13  O   LIG     1     -40.629 -34.019 -21.667  1.00  0.00    -0.219 OA
ENDROOT
BRANCH  10  14
HETATM   14  C   LIG     1     -42.701 -33.210 -21.120  1.00  0.00    -0.016 A 
HETATM   15  C   LIG     1     -42.877 -32.089 -22.373  1.00  0.00    -0.002 A 
HETATM   16  C   LIG     1     -43.932 -31.989 -23.297  1.00  0.00     0.030 A 
HETATM   17  C   LIG     1     -44.617 -32.927 -22.958  1.00  0.00     0.170 A 
HETATM   18  O   LIG     1     -45.721 -32.832 -23.905  1.00  0.00    -0.187 OA
HETATM   19  C   LIG     1     -44.562 -34.083 -21.750  1.00  0.00     0.221 A 
HETATM   20  O   LIG     1     -45.332 -35.049 -21.439  1.00  0.00    -0.284 OA
HETATM   21  C   LIG     1     -43.608 -34.216 -20.847  1.00  0.00     0.040 A 
ENDBRANCH  10  14
BRANCH  10  22
HETATM   22  O   LIG     1     -41.495 -32.498 -18.556  1.00  0.00     0.000 OA
HETATM   23  C   LIG     1     -41.674 -31.759 -17.766  1.00  0.00     0.002 A 
HETATM   24  C   LIG     1     -41.946 -31.046 -18.719  1.00  0.00     0.165 A 
HETATM   25  C   LIG     1     -42.463 -29.715 -18.261  1.00  0.00     0.083 A 
HETATM   26  O   LIG     1     -42.435 -29.662 -19.292  1.00  0.00    -0.328 OA
BRANCH  23  27
HETATM   27  C   LIG     1     -41.733 -31.423 -16.097  1.00  0.00    -0.045 A 
HETATM   28  C   LIG     1     -40.685 -31.163 -15.289  1.00  0.00     0.025 A 
HETATM   29  C   LIG     1     -39.646 -31.245 -16.131  1.00  0.00     0.054 A 
HETATM   30  O   LIG     1     -40.149 -30.736 -13.848  1.00  0.00     0.000 OA
HETATM   31  C   LIG     1     -41.669 -30.812 -13.963  1.00  0.00     0.012 A 
HETATM   32  O   LIG     1     -40.131 -30.774 -14.958  1.00  0.00     0.000 OA
HETATM   33  C   LIG     1     -41.419 -30.661 -12.800  1.00  0.00     0.023 A 
HETATM   34  C   LIG     1     -42.724 -31.323 -15.262  1.00  0.00     0.022 A 
BRANCH  33  35
HETATM   35  C   LIG     1     -40.132 -30.164 -11.719  1.00  0.00    -0.042 A 
HETATM   36  C   LIG     1     -39.360 -28.721 -11.678  1.00  0.00    -0.027 A 
HETATM   37  C   LIG     1     -38.177 -28.365 -10.564  1.00  0.00     0.081 A 
HETATM   38  C   LIG     1     -37.795 -29.401  -9.566  1.00  0.00     0.134 A 
HETATM   39  O   LIG     1     -36.688 -28.993  -8.626  1.00  0.00    -0.193 OA
HETATM   40  C   LIG     1     -38.598 -30.828  -9.658  1.00  0.00     0.134 A 
HETATM   41  O   LIG     1     -38.210 -32.000  -8.483  1.00  0.00    -0.193 OA
HETATM   42  C   LIG     1     -39.720 -31.195 -10.658  1.00  0.00     0.078 A 
ENDBRANCH  33  35
ENDBRANCH  23  27
ENDBRANCH  10  22
TORSDOF 6
ENDMDL
MODEL 8
REMARK VINA RESULT:      -8.9      2.858     10.724
REMARK  6 active torsions:
REMARK  status: ('A' for Active; 'I' for Inactive)
REMARK    1  A    between atoms: C_10  and  C_11 
REMARK    2  A    between atoms: C_10  and  O_19 
REMARK    3  A    between atoms: C_20  and  C_21 
REMARK    4  A    between atoms: C_23  and  C_24 
REMARK    5  A    between atoms: C_26  and  C_27 
REMARK    6  A    between atoms: C_31  and  C_32 
ROOT
HETATM    1  O   LIG     1     -49.560 -28.624 -23.957  1.00  0.00    -0.190 OA
HETATM    2  C   LIG     1     -48.330 -29.241 -23.231  1.00  0.00     0.133 C 
HETATM    3  C   LIG     1     -47.360 -30.323 -23.643  1.00  0.00     0.051 C 
HETATM    4  C   LIG     1     -46.111 -30.852 -22.637  1.00  0.00     0.118 C 
HETATM    5  O   LIG     1     -45.023 -32.000 -23.206  1.00  0.00    -0.194 OA
HETATM    6  C   LIG     1     -46.089 -30.090 -21.131  1.00  0.00     0.090 A 
HETATM    7  C   LIG     1     -46.647 -29.402 -20.980  1.00  0.00    -0.014 A 
HETATM    8  C   LIG     1     -47.881 -28.874 -21.986  1.00  0.00     0.024 C 
HETATM    9  O   LIG     1     -46.028 -29.183 -19.762  1.00  0.00     0.000 OA
HETATM   10  C   LIG     1     -45.162 -29.200 -18.338  1.00  0.00     0.063 C 
HETATM   11  C   LIG     1     -44.822 -30.492 -20.051  1.00  0.00     0.007 C 
HETATM   12  C   LIG     1     -45.271 -29.338 -18.392  1.00  0.00     0.174 C 
HETATM   13  O   LIG     1     -46.741 -28.452 -18.970  1.00  0.00    -0.219 OA
ENDROOT
BRANCH  10  14
HETATM   14  C   LIG     1     -45.547 -28.175 -17.034  1.00  0.00    -0.016 A 
HETATM   15  C   LIG     1     -46.352 -28.830 -15.701  1.00  0.00    -0.002 A 
HETATM   16  C   LIG     1     -46.726 -28.177 -14.513  1.00  0.00     0.030 A 
HETATM   17  C   LIG     1     -46.282 -27.070 -14.717  1.00  0.00     0.170 A 
HETATM   18  O   LIG     1     -46.668 -26.376 -13.495  1.00  0.00    -0.187 OA
HETATM   19  C   LIG     1     -45.491 -26.304 -15.977  1.00  0.00     0.221 A 
HETATM   20  O   LIG     1     -45.054 -25.117 -16.132  1.00  0.00    -0.284 OA
HETATM   21  C   LIG     1     -45.130 -26.860 -17.119  1.00  0.00     0.040 A 
ENDBRANCH  10  14
BRANCH  10  22
HETATM   22  O   LIG     1     -43.765 -30.225 -18.110  1.00  0.00     0.000 OA
HETATM   23  C   LIG     1     -42.755 -30.526 -17.809  1.00  0.00     0.002 A 
HETATM   24  C   LIG     1     -42.762 -29.429 -17.273  1.00  0.00     0.165 A 
HETATM   25  C   LIG     1     -41.520 -29.221 -16.461  1.00  0.00     0.083 A 
HETATM   26  O   LIG     1     -42.053 -28.340 -16.383  1.00  0.00    -0.328 OA
BRANCH  23  27
HETATM   27  C   LIG     1     -41.553 -31.734 -17.808  1.00  0.00    -0.045 A 
HETATM   28  C   LIG     1     -40.592 -31.917 -18.736  1.00  0.00     0.025 A 
HETATM   29  C   LIG     1     -40.845 -30.931 -19.609  1.00  0.00     0.054 A 
HETATM   30  O   LIG     1     -39.283 -32.699 -19.206  1.00  0.00     0.000 OA
HETATM   31  C   LIG     1     -39.839 -33.144 -17.856  1.00  0.00     0.012 A 
HETATM   32  O   LIG     1     -39.947 -31.813 -19.110  1.00  0.00     0.000 OA
HETATM   33  C   LIG     1     -38.983 -33.930 -18.152  1.00  0.00     0.023 A 
HETATM   34  C   LIG     1     -41.277 -32.689 -16.970  1.00  0.00     0.022 A 
BRANCH  33  35
HETATM   35  C   LIG     1     -37.615 -34.140 -19.228  1.00  0.00    -0.042 A 
HETATM   36  C   LIG     1     -37.547 -35.031 -20.599  1.00  0.00    -0.027 A 
HETATM   37  C   LIG     1     -36.187 -35.110 -21.555  1.00  0.00     0.081 A 
HETATM   38  C   LIG     1     -34.977 -34.346 -21.145  1.00  0.00     0.134 A 
HETATM   39  O   LIG     1     -33.787 -34.514 -22.058  1.00  0.00    -0.193 OA
HETATM   40  C   LIG     1     -35.102 -33.476 -19.761  1.00  0.00     0.134 A 
HETATM   41  O   LIG     1     -33.741 -32.552 -19.314  1.00  0.00    -0.193 OA
HETATM   42  C   LIG     1     -36.351 -33.353 -18.855  1.00  0.00     0.078 A 
ENDBRANCH  33  35
ENDBRANCH  23  27
ENDBRANCH  10  22
TORSDOF 6
ENDMDL
MODEL 9
REMARK VINA RESULT:      -8.7      4.923      8.186
REMARK  6 active torsions:
REMARK  status: ('A' for Active; 'I' for Inactive)
REMARK    1  A    between atoms: C_10  and  C_11 
REMARK    2  A    between atoms: C_10  and  O_19 
REMARK    3  A    between atoms: C_20  and  C_21 
REMARK    4  A    between atoms: C_23  and  C_24 
REMARK    5  A    between atoms: C_26  and  C_27 
REMARK    6  A    between atoms: C_31  and  C_32 
ROOT
HETATM    1  O   LIG     1     -33.027 -32.627 -19.619  1.00  0.00    -0.190 OA
HETATM    2  C   LIG     1     -34.513 -33.084 -19.569  1.00  0.00     0.133 C 
HETATM    3  C   LIG     1     -35.252 -34.178 -20.304  1.00  0.00     0.051 C 
HETATM    4  C   LIG     1     -36.906 -34.449 -20.100  1.00  0.00     0.118 C 
HETATM    5  O   LIG     1     -37.634 -35.740 -20.890  1.00  0.00    -0.194 OA
HETATM    6  C   LIG     1     -37.643 -33.359 -19.042  1.00  0.00     0.090 A 
HETATM    7  C   LIG     1     -37.132 -32.781 -18.581  1.00  0.00    -0.014 A 
HETATM    8  C   LIG     1     -35.487 -32.522 -18.780  1.00  0.00     0.024 C 
HETATM    9  O   LIG     1     -38.248 -32.376 -17.873  1.00  0.00     0.000 OA
HETATM   10  C   LIG     1     -39.753 -32.032 -17.242  1.00  0.00     0.063 C 
HETATM   11  C   LIG     1     -39.307 -33.579 -18.701  1.00  0.00     0.007 C 
HETATM   12  C   LIG     1     -39.708 -32.004 -17.418  1.00  0.00     0.174 C 
HETATM   13  O   LIG     1     -38.070 -31.245 -17.274  1.00  0.00    -0.219 OA
ENDROOT
BRANCH  10  14
HETATM   14  C   LIG     1     -39.999 -30.759 -16.138  1.00  0.00    -0.016 A 
HETATM   15  C   LIG     1     -40.152 -29.187 -16.738  1.00  0.00    -0.002 A 
HETATM   16  C   LIG     1     -40.397 -28.007 -16.013  1.00  0.00     0.030 A 
HETATM   17  C   LIG     1     -40.497 -28.451 -14.892  1.00  0.00     0.170 A 
HETATM   18  O   LIG     1     -40.745 -27.237 -14.124  1.00  0.00    -0.187 OA
HETATM   19  C   LIG     1     -40.358 -29.957 -14.176  1.00  0.00     0.221 A 
HETATM   20  O   LIG     1     -40.467 -30.357 -12.971  1.00  0.00    -0.284 OA
HETATM   21  C   LIG     1     -40.113 -31.093 -14.802  1.00  0.00     0.040 A 
ENDBRANCH  10  14
BRANCH  10  22
HETATM   22  O   LIG     1     -41.163 -32.991 -17.620  1.00  0.00     0.000 OA
HETATM   23  C   LIG     1     -42.205 -33.225 -17.871  1.00  0.00     0.002 A 
HETATM   24  C   LIG     1     -42.277 -32.013 -17.998  1.00  0.00     0.165 A 
HETATM   25  C   LIG     1     -43.622 -31.609 -18.521  1.00  0.00     0.083 A 
HETATM   26  O   LIG     1     -43.109 -30.727 -18.364  1.00  0.00    -0.328 OA
BRANCH  23  27
HETATM   27  C   LIG     1     -43.390 -34.423 -18.126  1.00  0.00    -0.045 A 
HETATM   28  C   LIG     1     -43.460 -35.279 -19.165  1.00  0.00     0.025 A 
HETATM   29  C   LIG     1     -42.392 -34.932 -19.896  1.00  0.00     0.054 A 
HETATM   30  O   LIG     1     -44.170 -36.532 -19.852  1.00  0.00     0.000 OA
HETATM   31  C   LIG     1     -44.763 -36.126 -18.506  1.00  0.00     0.012 A 
HETATM   32  O   LIG     1     -43.308 -35.881 -19.593  1.00  0.00     0.000 OA
HETATM   33  C   LIG     1     -45.501 -36.947 -18.973  1.00  0.00     0.023 A 
HETATM   34  C   LIG     1     -44.423 -34.790 -17.428  1.00  0.00     0.022 A 
BRANCH  33  35
HETATM   35  C   LIG     1     -45.578 -38.193 -20.205  1.00  0.00    -0.042 A 
HETATM   36  C   LIG     1     -44.877 -39.671 -20.177  1.00  0.00    -0.027 A 
HETATM   37  C   LIG     1     -45.066 -40.780 -21.403  1.00  0.00     0.081 A 
HETATM   38  C   LIG     1     -45.900 -40.413 -22.580  1.00  0.00     0.134 A 
HETATM   39  O   LIG     1     -45.978 -41.472 -23.652  1.00  0.00    -0.193 OA
HETATM   40  C   LIG     1     -46.572 -38.917 -22.555  1.00  0.00     0.134 A 
HETATM   41  O   LIG     1     -47.577 -38.509 -23.870  1.00  0.00    -0.193 OA
HETATM   42  C   LIG     1     -46.445 -37.865 -21.427  1.00  0.00     0.078 A 
ENDBRANCH  33  35
ENDBRANCH  23  27
ENDBRANCH  10  22
TORSDOF 6
ENDMDL
MODEL 10
REMARK VINA RESULT:      -8.7      4.664      9.156
REMARK  6 active torsions:
REMARK  status: ('A' for Active; 'I' for Inactive)
REMARK    1  A    between atoms: C_10  and  C_11 
REMARK    2  A    between atoms: C_10  and  O_19 
REMARK    3  A    between atoms: C_20  and  C_21 
REMARK    4  A    between atoms: C_23  and  C_24 
REMARK    5  A    between atoms: C_26  and  C_27 
REMARK    6  A    between atoms: C_31  and  C_32 
ROOT
HETATM    1  O   LIG     1     -44.811 -40.473 -22.629  1.00  0.00    -0.190 OA
HETATM    2  C   LIG     1     -44.523 -39.240 -21.724  1.00  0.00     0.133 C 
HETATM    3  C   LIG     1     -45.325 -38.601 -20.615  1.00  0.00     0.051 C 
HETATM    4  C   LIG     1     -44.802 -37.217 -19.800  1.00  0.00     0.118 C 
HETATM    5  O   LIG     1     -45.713 -36.619 -18.521  1.00  0.00    -0.194 OA
HETATM    6  C   LIG     1     -43.338 -36.607 -20.377  1.00  0.00     0.090 A 
HETATM    7  C   LIG     1     -42.876 -37.079 -20.988  1.00  0.00    -0.014 A 
HETATM    8  C   LIG     1     -43.395 -38.459 -21.788  1.00  0.00     0.024 C 
HETATM    9  O   LIG     1     -41.831 -36.181 -20.875  1.00  0.00     0.000 OA
HETATM   10  C   LIG     1     -40.779 -34.917 -20.598  1.00  0.00     0.063 C 
HETATM   11  C   LIG     1     -42.670 -35.246 -19.580  1.00  0.00     0.007 C 
HETATM   12  C   LIG     1     -40.946 -34.895 -20.672  1.00  0.00     0.174 C 
HETATM   13  O   LIG     1     -41.007 -36.254 -21.868  1.00  0.00    -0.219 OA
ENDROOT
BRANCH  10  14
HETATM   14  C   LIG     1     -39.342 -34.726 -21.491  1.00  0.00    -0.016 A 
HETATM   15  C   LIG     1     -37.892 -35.275 -20.816  1.00  0.00    -0.002 A 
HETATM   16  C   LIG     1     -36.610 -35.252 -21.393  1.00  0.00     0.030 A 
HETATM   17  C   LIG     1     -36.861 -34.778 -22.478  1.00  0.00     0.170 A 
HETATM   18  O   LIG     1     -35.539 -34.740 -23.088  1.00  0.00    -0.187 OA
HETATM   19  C   LIG     1     -38.226 -34.193 -23.249  1.00  0.00     0.221 A 
HETATM   20  O   LIG     1     -38.421 -33.691 -24.404  1.00  0.00    -0.284 OA
HETATM   21  C   LIG     1     -39.449 -34.173 -22.752  1.00  0.00     0.040 A 
ENDBRANCH  10  14
BRANCH  10  22
HETATM   22  O   LIG     1     -41.047 -33.742 -19.332  1.00  0.00     0.000 OA
HETATM   23  C   LIG     1     -41.062 -32.771 -18.824  1.00  0.00     0.002 A 
HETATM   24  C   LIG     1     -40.757 -32.367 -19.935  1.00  0.00     0.165 A 
HETATM   25  C   LIG     1     -40.724 -30.869 -19.969  1.00  0.00     0.083 A 
HETATM   26  O   LIG     1     -40.433 -31.175 -20.912  1.00  0.00    -0.328 OA
BRANCH  23  27
HETATM   27  C   LIG     1     -41.360 -31.902 -17.388  1.00  0.00    -0.045 A 
HETATM   28  C   LIG     1     -40.464 -31.605 -16.425  1.00  0.00     0.025 A 
HETATM   29  C   LIG     1     -39.340 -32.163 -16.897  1.00  0.00     0.054 A 
HETATM   30  O   LIG     1     -40.131 -30.845 -15.063  1.00  0.00     0.000 OA
HETATM   31  C   LIG     1     -41.559 -30.652 -15.565  1.00  0.00     0.012 A 
HETATM   32  O   LIG     1     -39.902 -31.248 -16.073  1.00  0.00     0.000 OA
HETATM   33  C   LIG     1     -41.515 -30.182 -14.463  1.00  0.00     0.023 A 
HETATM   34  C   LIG     1     -42.432 -31.340 -16.916  1.00  0.00     0.022 A 
BRANCH  33  35
HETATM   35  C   LIG     1     -40.384 -29.623 -13.245  1.00  0.00    -0.042 A 
HETATM   36  C   LIG     1     -39.995 -28.077 -12.875  1.00  0.00    -0.027 A 
HETATM   37  C   LIG     1     -38.929 -27.684 -11.659  1.00  0.00     0.081 A 
HETATM   38  C   LIG     1     -38.295 -28.781 -10.878  1.00  0.00     0.134 A 
HETATM   39  O   LIG     1     -37.317 -28.321  -9.825  1.00  0.00    -0.193 OA
HETATM   40  C   LIG     1     -38.720 -30.309 -11.296  1.00  0.00     0.134 A 
HETATM   41  O   LIG     1     -38.045 -31.570 -10.369  1.00  0.00    -0.193 OA
HETATM   42  C   LIG     1     -39.723 -30.721 -12.400  1.00  0.00     0.078 A 
ENDBRANCH  33  35
ENDBRANCH  23  27
ENDBRANCH  10  22
TORSDOF 6
ENDMDL
MODEL 11
REMARK VINA RESULT:      -8.6      2.675      9.462
REMARK  6 active torsions:
REMARK  status: ('A' for Active; 'I' for Inactive)
REMARK    1  A    between atoms: C_10  and  C_11 
REMARK    2  A    between atoms: C_10  and  O_19 
REMARK    3  A    between atoms: C_20  and  C_21 
REMARK    4  A    between atoms: C_23  and  C_24 
REMARK    5  A    between atoms: C_26  and  C_27 
REMARK    6  A    between atoms: C_31  and  C_32 
ROOT
HETATM    1  O   LIG     1     -48.620 -29.313 -24.325  1.00  0.00    -0.190 OA
HETATM    2  C   LIG     1     -47.704 -29.151 -23.078  1.00  0.00     0.133 C 
HETATM    3  C   LIG     1     -47.764 -28.201 -21.906  1.00  0.00     0.051 C 
HETATM    4  C   LIG     1     -46.603 -28.199 -20.680  1.00  0.00     0.118 C 
HETATM    5  O   LIG     1     -46.790 -27.167 -19.367  1.00  0.00    -0.194 OA
HETATM    6  C   LIG     1     -45.363 -29.319 -20.923  1.00  0.00     0.090 A 
HETATM    7  C   LIG     1     -45.429 -29.905 -21.602  1.00  0.00    -0.014 A 
HETATM    8  C   LIG     1     -46.590 -29.909 -22.812  1.00  0.00     0.024 C 
HETATM    9  O   LIG     1     -44.294 -30.548 -21.141  1.00  0.00     0.000 OA
HETATM   10  C   LIG     1     -42.886 -31.067 -20.415  1.00  0.00     0.063 C 
HETATM   11  C   LIG     1     -44.164 -29.459 -19.708  1.00  0.00     0.007 C 
HETATM   12  C   LIG     1     -42.904 -30.902 -20.494  1.00  0.00     0.174 C 
HETATM   13  O   LIG     1     -43.762 -31.313 -22.035  1.00  0.00    -0.219 OA
ENDROOT
BRANCH  10  14
HETATM   14  C   LIG     1     -41.930 -32.308 -21.084  1.00  0.00    -0.016 A 
HETATM   15  C   LIG     1     -40.844 -31.915 -22.318  1.00  0.00    -0.002 A 
HETATM   16  C   LIG     1     -39.941 -32.769 -22.976  1.00  0.00     0.030 A 
HETATM   17  C   LIG     1     -40.146 -33.806 -22.389  1.00  0.00     0.170 A 
HETATM   18  O   LIG     1     -39.221 -34.707 -23.065  1.00  0.00    -0.187 OA
HETATM   19  C   LIG     1     -41.184 -34.321 -21.181  1.00  0.00     0.221 A 
HETATM   20  O   LIG     1     -41.357 -35.446 -20.609  1.00  0.00    -0.284 OA
HETATM   21  C   LIG     1     -42.061 -33.571 -20.540  1.00  0.00     0.040 A 
ENDBRANCH  10  14
BRANCH  10  22
HETATM   22  O   LIG     1     -42.329 -30.420 -18.891  1.00  0.00     0.000 OA
HETATM   23  C   LIG     1     -41.644 -29.992 -18.150  1.00  0.00     0.002 A 
HETATM   24  C   LIG     1     -40.906 -29.908 -19.119  1.00  0.00     0.165 A 
HETATM   25  C   LIG     1     -39.640 -29.189 -18.766  1.00  0.00     0.083 A 
HETATM   26  O   LIG     1     -39.535 -29.467 -19.756  1.00  0.00    -0.328 OA
BRANCH  23  27
HETATM   27  C   LIG     1     -41.394 -29.493 -16.539  1.00  0.00    -0.045 A 
HETATM   28  C   LIG     1     -40.952 -30.255 -15.519  1.00  0.00     0.025 A 
HETATM   29  C   LIG     1     -40.779 -31.448 -16.105  1.00  0.00     0.054 A 
HETATM   30  O   LIG     1     -40.478 -30.354 -13.998  1.00  0.00     0.000 OA
HETATM   31  C   LIG     1     -40.869 -28.950 -14.452  1.00  0.00     0.012 A 
HETATM   32  O   LIG     1     -40.468 -30.625 -15.076  1.00  0.00     0.000 OA
HETATM   33  C   LIG     1     -40.715 -28.897 -13.264  1.00  0.00     0.023 A 
HETATM   34  C   LIG     1     -41.539 -28.344 -15.950  1.00  0.00     0.022 A 
BRANCH  33  35
HETATM   35  C   LIG     1     -40.000 -29.775 -11.925  1.00  0.00    -0.042 A 
HETATM   36  C   LIG     1     -40.476 -31.212 -11.303  1.00  0.00    -0.027 A 
HETATM   37  C   LIG     1     -39.677 -31.959 -10.049  1.00  0.00     0.081 A 
HETATM   38  C   LIG     1     -38.483 -31.292  -9.460  1.00  0.00     0.134 A 
HETATM   39  O   LIG     1     -37.854 -32.031  -8.305  1.00  0.00    -0.193 OA
HETATM   40  C   LIG     1     -38.057 -29.853 -10.121  1.00  0.00     0.134 A 
HETATM   41  O   LIG     1     -36.657 -29.109  -9.493  1.00  0.00    -0.193 OA
HETATM   42  C   LIG     1     -38.753 -29.134 -11.301  1.00  0.00     0.078 A 
ENDBRANCH  33  35
ENDBRANCH  23  27
ENDBRANCH  10  22
TORSDOF 6
ENDMDL
MODEL 12
REMARK VINA RESULT:      -8.5      3.430      8.860
REMARK  6 active torsions:
REMARK  status: ('A' for Active; 'I' for Inactive)
REMARK    1  A    between atoms: C_10  and  C_11 
REMARK    2  A    between atoms: C_10  and  O_19 
REMARK    3  A    between atoms: C_20  and  C_21 
REMARK    4  A    between atoms: C_23  and  C_24 
REMARK    5  A    between atoms: C_26  and  C_27 
REMARK    6  A    between atoms: C_31  and  C_32 
ROOT
HETATM    1  O   LIG     1     -47.929 -25.531 -17.984  1.00  0.00    -0.190 OA
HETATM    2  C   LIG     1     -46.773 -26.540 -18.241  1.00  0.00     0.133 C 
HETATM    3  C   LIG     1     -46.502 -27.485 -19.387  1.00  0.00     0.051 C 
HETATM    4  C   LIG     1     -45.174 -28.528 -19.407  1.00  0.00     0.118 C 
HETATM    5  O   LIG     1     -44.898 -29.487 -20.760  1.00  0.00    -0.194 OA
HETATM    6  C   LIG     1     -44.224 -28.438 -18.015  1.00  0.00     0.090 A 
HETATM    7  C   LIG     1     -44.399 -27.800 -17.405  1.00  0.00    -0.014 A 
HETATM    8  C   LIG     1     -45.714 -26.760 -17.394  1.00  0.00     0.024 C 
HETATM    9  O   LIG     1     -43.258 -28.166 -16.713  1.00  0.00     0.000 OA
HETATM   10  C   LIG     1     -41.894 -28.861 -16.055  1.00  0.00     0.063 C 
HETATM   11  C   LIG     1     -42.807 -29.398 -17.951  1.00  0.00     0.007 C 
HETATM   12  C   LIG     1     -42.053 -28.951 -16.076  1.00  0.00     0.174 C 
HETATM   13  O   LIG     1     -43.254 -27.724 -15.499  1.00  0.00    -0.219 OA
ENDROOT
BRANCH  10  14
HETATM   14  C   LIG     1     -41.290 -28.397 -14.532  1.00  0.00    -0.016 A 
HETATM   15  C   LIG     1     -41.792 -29.258 -13.167  1.00  0.00    -0.002 A 
HETATM   16  C   LIG     1     -41.390 -29.070 -11.833  1.00  0.00     0.030 A 
HETATM   17  C   LIG     1     -40.588 -28.174 -11.965  1.00  0.00     0.170 A 
HETATM   18  O   LIG     1     -40.165 -27.961 -10.587  1.00  0.00    -0.187 OA
HETATM   19  C   LIG     1     -40.021 -27.244 -13.235  1.00  0.00     0.221 A 
HETATM   20  O   LIG     1     -39.171 -26.297 -13.305  1.00  0.00    -0.284 OA
HETATM   21  C   LIG     1     -40.373 -27.364 -14.502  1.00  0.00     0.040 A 
ENDBRANCH  10  14
BRANCH  10  22
HETATM   22  O   LIG     1     -40.957 -30.064 -16.908  1.00  0.00     0.000 OA
HETATM   23  C   LIG     1     -40.200 -30.485 -17.580  1.00  0.00     0.002 A 
HETATM   24  C   LIG     1     -39.830 -29.322 -17.627  1.00  0.00     0.165 A 
HETATM   25  C   LIG     1     -38.561 -29.196 -18.414  1.00  0.00     0.083 A 
HETATM   26  O   LIG     1     -38.817 -28.232 -18.144  1.00  0.00    -0.328 OA
BRANCH  23  27
HETATM   27  C   LIG     1     -39.536 -31.873 -18.313  1.00  0.00    -0.045 A 
HETATM   28  C   LIG     1     -39.866 -32.386 -19.515  1.00  0.00     0.025 A 
HETATM   29  C   LIG     1     -40.813 -31.537 -19.939  1.00  0.00     0.054 A 
HETATM   30  O   LIG     1     -39.589 -33.463 -20.659  1.00  0.00     0.000 OA
HETATM   31  C   LIG     1     -38.655 -33.559 -19.456  1.00  0.00     0.012 A 
HETATM   32  O   LIG     1     -39.885 -32.468 -20.264  1.00  0.00     0.000 OA
HETATM   33  C   LIG     1     -38.446 -34.527 -20.132  1.00  0.00     0.023 A 
HETATM   34  C   LIG     1     -38.611 -32.702 -17.931  1.00  0.00     0.022 A 
BRANCH  33  35
HETATM   35  C   LIG     1     -38.704 -35.166 -21.745  1.00  0.00    -0.042 A 
HETATM   36  C   LIG     1     -39.986 -36.027 -22.286  1.00  0.00    -0.027 A 
HETATM   37  C   LIG     1     -40.124 -36.540 -23.863  1.00  0.00     0.081 A 
HETATM   38  C   LIG     1     -39.035 -36.210 -24.823  1.00  0.00     0.134 A 
HETATM   39  O   LIG     1     -39.238 -36.752 -26.216  1.00  0.00    -0.193 OA
HETATM   40  C   LIG     1     -37.774 -35.350 -24.223  1.00  0.00     0.134 A 
HETATM   41  O   LIG     1     -36.550 -34.917 -25.327  1.00  0.00    -0.193 OA
HETATM   42  C   LIG     1     -37.615 -34.831 -22.773  1.00  0.00     0.078 A 
ENDBRANCH  33  35
ENDBRANCH  23  27
ENDBRANCH  10  22
TORSDOF 6
ENDMDL
MODEL 13
REMARK VINA RESULT:      -8.5      4.828      7.970
REMARK  6 active torsions:
REMARK  status: ('A' for Active; 'I' for Inactive)
REMARK    1  A    between atoms: C_10  and  C_11 
REMARK    2  A    between atoms: C_10  and  O_19 
REMARK    3  A    between atoms: C_20  and  C_21 
REMARK    4  A    between atoms: C_23  and  C_24 
REMARK    5  A    between atoms: C_26  and  C_27 
REMARK    6  A    between atoms: C_31  and  C_32 
ROOT
HETATM    1  O   LIG     1     -45.407 -38.933 -20.520  1.00  0.00    -0.190 OA
HETATM    2  C   LIG     1     -44.780 -37.629 -19.948  1.00  0.00     0.133 C 
HETATM    3  C   LIG     1     -45.255 -36.672 -18.880  1.00  0.00     0.051 C 
HETATM    4  C   LIG     1     -44.397 -35.279 -18.465  1.00  0.00     0.118 C 
HETATM    5  O   LIG     1     -44.950 -34.312 -17.206  1.00  0.00    -0.194 OA
HETATM    6  C   LIG     1     -43.001 -35.047 -19.385  1.00  0.00     0.090 A 
HETATM    7  C   LIG     1     -42.736 -35.693 -19.951  1.00  0.00    -0.014 A 
HETATM    8  C   LIG     1     -43.588 -37.081 -20.354  1.00  0.00     0.024 C 
HETATM    9  O   LIG     1     -41.574 -34.986 -20.198  1.00  0.00     0.000 OA
HETATM   10  C   LIG     1     -40.322 -33.897 -20.361  1.00  0.00     0.063 C 
HETATM   11  C   LIG     1     -42.008 -33.704 -19.006  1.00  0.00     0.007 C 
HETATM   12  C   LIG     1     -40.495 -33.860 -20.410  1.00  0.00     0.174 C 
HETATM   13  O   LIG     1     -40.975 -35.378 -21.274  1.00  0.00    -0.219 OA
ENDROOT
BRANCH  10  14
HETATM   14  C   LIG     1     -39.072 -34.123 -21.496  1.00  0.00    -0.016 A 
HETATM   15  C   LIG     1     -37.666 -34.920 -21.001  1.00  0.00    -0.002 A 
HETATM   16  C   LIG     1     -36.540 -35.244 -21.779  1.00  0.00     0.030 A 
HETATM   17  C   LIG     1     -36.888 -34.830 -22.860  1.00  0.00     0.170 A 
HETATM   18  O   LIG     1     -35.726 -35.151 -23.679  1.00  0.00    -0.187 OA
HETATM   19  C   LIG     1     -38.223 -34.024 -23.468  1.00  0.00     0.221 A 
HETATM   20  O   LIG     1     -38.525 -33.602 -24.632  1.00  0.00    -0.284 OA
HETATM   21  C   LIG     1     -39.299 -33.680 -22.785  1.00  0.00     0.040 A 
ENDBRANCH  10  14
BRANCH  10  22
HETATM   22  O   LIG     1     -40.173 -32.487 -19.340  1.00  0.00     0.000 OA
HETATM   23  C   LIG     1     -39.727 -31.778 -18.633  1.00  0.00     0.002 A 
HETATM   24  C   LIG     1     -38.736 -32.466 -18.818  1.00  0.00     0.165 A 
HETATM   25  C   LIG     1     -37.543 -31.885 -18.122  1.00  0.00     0.083 A 
HETATM   26  O   LIG     1     -37.211 -32.762 -18.555  1.00  0.00    -0.328 OA
BRANCH  23  27
HETATM   27  C   LIG     1     -39.922 -30.376 -17.684  1.00  0.00    -0.045 A 
HETATM   28  C   LIG     1     -40.340 -30.321 -16.404  1.00  0.00     0.025 A 
HETATM   29  C   LIG     1     -40.548 -31.613 -16.114  1.00  0.00     0.054 A 
HETATM   30  O   LIG     1     -40.612 -29.449 -15.095  1.00  0.00     0.000 OA
HETATM   31  C   LIG     1     -40.067 -28.660 -16.283  1.00  0.00     0.012 A 
HETATM   32  O   LIG     1     -40.312 -30.362 -15.652  1.00  0.00     0.000 OA
HETATM   33  C   LIG     1     -40.386 -27.855 -15.453  1.00  0.00     0.023 A 
HETATM   34  C   LIG     1     -39.715 -29.117 -17.935  1.00  0.00     0.022 A 
BRANCH  33  35
HETATM   35  C   LIG     1     -40.771 -27.710 -13.749  1.00  0.00    -0.042 A 
HETATM   36  C   LIG     1     -39.899 -28.254 -12.476  1.00  0.00    -0.027 A 
HETATM   37  C   LIG     1     -40.363 -28.010 -10.897  1.00  0.00     0.081 A 
HETATM   38  C   LIG     1     -41.627 -27.273 -10.626  1.00  0.00     0.134 A 
HETATM   39  O   LIG     1     -41.977 -27.138  -9.165  1.00  0.00    -0.193 OA
HETATM   40  C   LIG     1     -42.461 -26.756 -11.940  1.00  0.00     0.134 A 
HETATM   41  O   LIG     1     -43.880 -25.860 -11.640  1.00  0.00    -0.193 OA
HETATM   42  C   LIG     1     -42.057 -26.938 -13.423  1.00  0.00     0.078 A 
ENDBRANCH  33  35
ENDBRANCH  23  27
ENDBRANCH  10  22
TORSDOF 6
ENDMDL
MODEL 14
REMARK VINA RESULT:      -8.5      4.760      8.164
REMARK  6 active torsions:
REMARK  status: ('A' for Active; 'I' for Inactive)
REMARK    1  A    between atoms: C_10  and  C_11 
REMARK    2  A    between atoms: C_10  and  O_19 
REMARK    3  A    between atoms: C_20  and  C_21 
REMARK    4  A    between atoms: C_23  and  C_24 
REMARK    5  A    between atoms: C_26  and  C_27 
REMARK    6  A    between atoms: C_31  and  C_32 
ROOT
HETATM    1  O   LIG     1     -44.732 -39.603 -21.894  1.00  0.00    -0.190 OA
HETATM    2  C   LIG     1     -44.132 -38.336 -21.219  1.00  0.00     0.133 C 
HETATM    3  C   LIG     1     -44.629 -37.474 -20.083  1.00  0.00     0.051 C 
HETATM    4  C   LIG     1     -43.798 -36.101 -19.557  1.00  0.00     0.118 C 
HETATM    5  O   LIG     1     -44.374 -35.246 -18.230  1.00  0.00    -0.194 OA
HETATM    6  C   LIG     1     -42.403 -35.773 -20.449  1.00  0.00     0.090 A 
HETATM    7  C   LIG     1     -42.124 -36.369 -21.062  1.00  0.00    -0.014 A 
HETATM    8  C   LIG     1     -42.948 -37.737 -21.576  1.00  0.00     0.024 C 
HETATM    9  O   LIG     1     -40.974 -35.624 -21.248  1.00  0.00     0.000 OA
HETATM   10  C   LIG     1     -39.742 -34.503 -21.320  1.00  0.00     0.063 C 
HETATM   11  C   LIG     1     -41.437 -34.446 -19.962  1.00  0.00     0.007 C 
HETATM   12  C   LIG     1     -39.916 -34.465 -21.367  1.00  0.00     0.174 C 
HETATM   13  O   LIG     1     -40.365 -35.920 -22.348  1.00  0.00    -0.219 OA
ENDROOT
BRANCH  10  14
HETATM   14  C   LIG     1     -38.484 -34.617 -22.462  1.00  0.00    -0.016 A 
HETATM   15  C   LIG     1     -38.794 -34.144 -24.055  1.00  0.00    -0.002 A 
HETATM   16  C   LIG     1     -37.896 -34.119 -25.137  1.00  0.00     0.030 A 
HETATM   17  C   LIG     1     -36.880 -34.486 -24.592  1.00  0.00     0.170 A 
HETATM   18  O   LIG     1     -35.938 -34.473 -25.704  1.00  0.00    -0.187 OA
HETATM   19  C   LIG     1     -36.452 -34.987 -23.054  1.00  0.00     0.221 A 
HETATM   20  O   LIG     1     -35.350 -35.375 -22.544  1.00  0.00    -0.284 OA
HETATM   21  C   LIG     1     -37.253 -35.046 -22.007  1.00  0.00     0.040 A 
ENDBRANCH  10  14
BRANCH  10  22
HETATM   22  O   LIG     1     -39.624 -33.174 -20.192  1.00  0.00     0.000 OA
HETATM   23  C   LIG     1     -39.319 -32.611 -19.302  1.00  0.00     0.002 A 
HETATM   24  C   LIG     1     -38.579 -33.570 -19.147  1.00  0.00     0.165 A 
HETATM   25  C   LIG     1     -37.658 -33.353 -17.985  1.00  0.00     0.083 A 
HETATM   26  O   LIG     1     -37.445 -34.302 -18.335  1.00  0.00    -0.328 OA
BRANCH  23  27
HETATM   27  C   LIG     1     -39.472 -31.188 -18.376  1.00  0.00    -0.045 A 
HETATM   28  C   LIG     1     -40.382 -30.949 -17.410  1.00  0.00     0.025 A 
HETATM   29  C   LIG     1     -41.091 -32.087 -17.395  1.00  0.00     0.054 A 
HETATM   30  O   LIG     1     -40.927 -29.987 -16.260  1.00  0.00     0.000 OA
HETATM   31  C   LIG     1     -39.689 -29.470 -16.987  1.00  0.00     0.012 A 
HETATM   32  O   LIG     1     -40.711 -30.969 -16.733  1.00  0.00     0.000 OA
HETATM   33  C   LIG     1     -40.079 -28.574 -16.292  1.00  0.00     0.023 A 
HETATM   34  C   LIG     1     -38.792 -30.081 -18.360  1.00  0.00     0.022 A 
BRANCH  33  35
HETATM   35  C   LIG     1     -41.124 -28.244 -14.924  1.00  0.00    -0.042 A 
HETATM   36  C   LIG     1     -42.745 -28.017 -14.935  1.00  0.00    -0.027 A 
HETATM   37  C   LIG     1     -43.626 -27.752 -13.548  1.00  0.00     0.081 A 
HETATM   38  C   LIG     1     -42.913 -27.710 -12.242  1.00  0.00     0.134 A 
HETATM   39  O   LIG     1     -43.795 -27.426 -11.052  1.00  0.00    -0.193 OA
HETATM   40  C   LIG     1     -41.290 -27.939 -12.294  1.00  0.00     0.134 A 
HETATM   41  O   LIG     1     -40.472 -27.952 -10.798  1.00  0.00    -0.193 OA
HETATM   42  C   LIG     1     -40.434 -28.214 -13.553  1.00  0.00     0.078 A 
ENDBRANCH  33  35
ENDBRANCH  23  27
ENDBRANCH  10  22
TORSDOF 6
ENDMDL
MODEL 15
REMARK VINA RESULT:      -8.4      3.741      8.304
REMARK  6 active torsions:
REMARK  status: ('A' for Active; 'I' for Inactive)
REMARK    1  A    between atoms: C_10  and  C_11 
REMARK    2  A    between atoms: C_10  and  O_19 
REMARK    3  A    between atoms: C_20  and  C_21 
REMARK    4  A    between atoms: C_23  and  C_24 
REMARK    5  A    between atoms: C_26  and  C_27 
REMARK    6  A    between atoms: C_31  and  C_32 
ROOT
HETATM    1  O   LIG     1     -46.057 -30.515 -22.644  1.00  0.00    -0.190 OA
HETATM    2  C   LIG     1     -45.489 -29.874 -21.345  1.00  0.00     0.133 C 
HETATM    3  C   LIG     1     -45.990 -28.738 -20.485  1.00  0.00     0.051 C 
HETATM    4  C   LIG     1     -45.152 -28.195 -19.123  1.00  0.00     0.118 C 
HETATM    5  O   LIG     1     -45.821 -26.983 -18.172  1.00  0.00    -0.194 OA
HETATM    6  C   LIG     1     -43.697 -29.010 -18.856  1.00  0.00     0.090 A 
HETATM    7  C   LIG     1     -43.497 -29.726 -19.362  1.00  0.00    -0.014 A 
HETATM    8  C   LIG     1     -44.338 -30.268 -20.708  1.00  0.00     0.024 C 
HETATM    9  O   LIG     1     -42.391 -29.964 -18.566  1.00  0.00     0.000 OA
HETATM   10  C   LIG     1     -41.106 -29.962 -17.504  1.00  0.00     0.063 C 
HETATM   11  C   LIG     1     -42.794 -28.595 -17.462  1.00  0.00     0.007 C 
HETATM   12  C   LIG     1     -41.137 -29.827 -17.625  1.00  0.00     0.174 C 
HETATM   13  O   LIG     1     -41.536 -30.752 -19.129  1.00  0.00    -0.219 OA
ENDROOT
BRANCH  10  14
HETATM   14  C   LIG     1     -39.805 -31.050 -17.659  1.00  0.00    -0.016 A 
HETATM   15  C   LIG     1     -40.118 -32.707 -17.533  1.00  0.00    -0.002 A 
HETATM   16  C   LIG     1     -39.206 -33.769 -17.668  1.00  0.00     0.030 A 
HETATM   17  C   LIG     1     -38.192 -33.161 -17.926  1.00  0.00     0.170 A 
HETATM   18  O   LIG     1     -37.233 -34.250 -18.062  1.00  0.00    -0.187 OA
HETATM   19  C   LIG     1     -37.755 -31.552 -18.065  1.00  0.00     0.221 A 
HETATM   20  O   LIG     1     -36.652 -30.974 -18.333  1.00  0.00    -0.284 OA
HETATM   21  C   LIG     1     -38.561 -30.515 -17.933  1.00  0.00     0.040 A 
ENDBRANCH  10  14
BRANCH  10  22
HETATM   22  O   LIG     1     -41.036 -28.889 -16.127  1.00  0.00     0.000 OA
HETATM   23  C   LIG     1     -40.919 -28.567 -15.085  1.00  0.00     0.002 A 
HETATM   24  C   LIG     1     -40.559 -29.724 -14.937  1.00  0.00     0.165 A 
HETATM   25  C   LIG     1     -40.071 -29.958 -13.539  1.00  0.00     0.083 A 
HETATM   26  O   LIG     1     -40.009 -30.874 -14.012  1.00  0.00    -0.328 OA
BRANCH  23  27
HETATM   27  C   LIG     1     -41.000 -27.294 -13.954  1.00  0.00    -0.045 A 
HETATM   28  C   LIG     1     -42.070 -26.942 -13.213  1.00  0.00     0.025 A 
HETATM   29  C   LIG     1     -42.995 -27.830 -13.603  1.00  0.00     0.054 A 
HETATM   30  O   LIG     1     -42.686 -26.029 -12.059  1.00  0.00     0.000 OA
HETATM   31  C   LIG     1     -41.206 -25.784 -12.341  1.00  0.00     0.012 A 
HETATM   32  O   LIG     1     -42.575 -26.960 -12.655  1.00  0.00     0.000 OA
HETATM   33  C   LIG     1     -41.562 -24.916 -11.594  1.00  0.00     0.023 A 
HETATM   34  C   LIG     1     -40.117 -26.432 -13.548  1.00  0.00     0.022 A 
BRANCH  33  35
HETATM   35  C   LIG     1     -42.852 -24.493 -10.485  1.00  0.00    -0.042 A 
HETATM   36  C   LIG     1     -43.413 -25.370  -9.222  1.00  0.00    -0.027 A 
HETATM   37  C   LIG     1     -44.623 -24.828  -8.217  1.00  0.00     0.081 A 
HETATM   38  C   LIG     1     -45.230 -23.494  -8.479  1.00  0.00     0.134 A 
HETATM   39  O   LIG     1     -46.344 -23.112  -7.535  1.00  0.00    -0.193 OA
HETATM   40  C   LIG     1     -44.632 -22.664  -9.760  1.00  0.00     0.134 A 
HETATM   41  O   LIG     1     -45.278 -21.110 -10.034  1.00  0.00    -0.193 OA
HETATM   42  C   LIG     1     -43.492 -23.116 -10.705  1.00  0.00     0.078 A 
ENDBRANCH  33  35
ENDBRANCH  23  27
ENDBRANCH  10  22
TORSDOF 6
ENDMDL
MODEL 16
REMARK VINA RESULT:      -8.4      3.094      3.921
REMARK  6 active torsions:
REMARK  status: ('A' for Active; 'I' for Inactive)
REMARK    1  A    between atoms: C_10  and  C_11 
REMARK    2  A    between atoms: C_10  and  O_19 
REMARK    3  A    between atoms: C_20  and  C_21 
REMARK    4  A    between atoms: C_23  and  C_24 
REMARK    5  A    between atoms: C_26  and  C_27 
REMARK    6  A    between atoms: C_31  and  C_32 
ROOT
HETATM    1  O   LIG     1     -42.516 -25.971 -12.475  1.00  0.00    -0.190 OA
HETATM    2  C   LIG     1     -42.979 -26.624 -13.809  1.00  0.00     0.133 C 
HETATM    3  C   LIG     1     -44.250 -26.475 -14.611  1.00  0.00     0.051 C 
HETATM    4  C   LIG     1     -44.532 -27.344 -16.031  1.00  0.00     0.118 C 
HETATM    5  O   LIG     1     -45.936 -27.056 -16.909  1.00  0.00    -0.194 OA
HETATM    6  C   LIG     1     -43.287 -28.412 -16.428  1.00  0.00     0.090 A 
HETATM    7  C   LIG     1     -42.526 -28.395 -15.950  1.00  0.00    -0.014 A 
HETATM    8  C   LIG     1     -42.246 -27.523 -14.545  1.00  0.00     0.024 C 
HETATM    9  O   LIG     1     -41.961 -29.293 -16.838  1.00  0.00     0.000 OA
HETATM   10  C   LIG     1     -41.572 -30.419 -18.003  1.00  0.00     0.063 C 
HETATM   11  C   LIG     1     -43.428 -29.296 -17.888  1.00  0.00     0.007 C 
HETATM   12  C   LIG     1     -41.705 -30.445 -17.879  1.00  0.00     0.174 C 
HETATM   13  O   LIG     1     -40.910 -29.869 -16.357  1.00  0.00    -0.219 OA
ENDROOT
BRANCH  10  14
HETATM   14  C   LIG     1     -40.105 -31.282 -17.970  1.00  0.00    -0.016 A 
HETATM   15  C   LIG     1     -40.155 -32.953 -17.721  1.00  0.00    -0.002 A 
HETATM   16  C   LIG     1     -39.076 -33.854 -17.698  1.00  0.00     0.030 A 
HETATM   17  C   LIG     1     -38.155 -33.107 -17.936  1.00  0.00     0.170 A 
HETATM   18  O   LIG     1     -37.024 -34.026 -17.908  1.00  0.00    -0.187 OA
HETATM   19  C   LIG     1     -37.973 -31.462 -18.185  1.00  0.00     0.221 A 
HETATM   20  O   LIG     1     -36.959 -30.728 -18.424  1.00  0.00    -0.284 OA
HETATM   21  C   LIG     1     -38.945 -30.568 -18.202  1.00  0.00     0.040 A 
ENDBRANCH  10  14
BRANCH  10  22
HETATM   22  O   LIG     1     -42.612 -30.745 -19.369  1.00  0.00     0.000 OA
HETATM   23  C   LIG     1     -42.948 -30.793 -20.412  1.00  0.00     0.002 A 
HETATM   24  C   LIG     1     -41.793 -30.462 -20.629  1.00  0.00     0.165 A 
HETATM   25  C   LIG     1     -41.507 -30.455 -22.100  1.00  0.00     0.083 A 
HETATM   26  O   LIG     1     -40.637 -30.131 -21.646  1.00  0.00    -0.328 OA
BRANCH  23  27
HETATM   27  C   LIG     1     -44.207 -31.148 -21.504  1.00  0.00    -0.045 A 
HETATM   28  C   LIG     1     -45.263 -30.364 -21.800  1.00  0.00     0.025 A 
HETATM   29  C   LIG     1     -45.047 -29.288 -21.029  1.00  0.00     0.054 A 
HETATM   30  O   LIG     1     -46.566 -30.110 -22.686  1.00  0.00     0.000 OA
HETATM   31  C   LIG     1     -45.820 -31.401 -23.008  1.00  0.00     0.012 A 
HETATM   32  O   LIG     1     -45.659 -29.808 -22.119  1.00  0.00     0.000 OA
HETATM   33  C   LIG     1     -46.853 -31.440 -23.615  1.00  0.00     0.023 A 
HETATM   34  C   LIG     1     -44.432 -32.172 -22.272  1.00  0.00     0.022 A 
BRANCH  33  35
HETATM   35  C   LIG     1     -48.167 -30.420 -24.170  1.00  0.00    -0.042 A 
HETATM   36  C   LIG     1     -49.266 -29.621 -23.259  1.00  0.00    -0.027 A 
HETATM   37  C   LIG     1     -50.443 -28.646 -23.917  1.00  0.00     0.081 A 
HETATM   38  C   LIG     1     -50.507 -28.498 -25.397  1.00  0.00     0.134 A 
HETATM   39  O   LIG     1     -51.631 -27.624 -25.895  1.00  0.00    -0.193 OA
HETATM   40  C   LIG     1     -49.383 -29.326 -26.258  1.00  0.00     0.134 A 
HETATM   41  O   LIG     1     -49.410 -29.117 -27.950  1.00  0.00    -0.193 OA
HETATM   42  C   LIG     1     -48.257 -30.222 -25.689  1.00  0.00     0.078 A 
ENDBRANCH  33  35
ENDBRANCH  23  27
ENDBRANCH  10  22
TORSDOF 6
ENDMDL
MODEL 17
REMARK VINA RESULT:      -8.3      7.450     11.636
REMARK  6 active torsions:
REMARK  status: ('A' for Active; 'I' for Inactive)
REMARK    1  A    between atoms: C_10  and  C_11 
REMARK    2  A    between atoms: C_10  and  O_19 
REMARK    3  A    between atoms: C_20  and  C_21 
REMARK    4  A    between atoms: C_23  and  C_24 
REMARK    5  A    between atoms: C_26  and  C_27 
REMARK    6  A    between atoms: C_31  and  C_32 
ROOT
HETATM    1  O   LIG     1     -46.326 -37.524 -18.681  1.00  0.00    -0.190 OA
HETATM    2  C   LIG     1     -45.108 -37.396 -19.640  1.00  0.00     0.133 C 
HETATM    3  C   LIG     1     -44.691 -38.203 -20.847  1.00  0.00     0.051 C 
HETATM    4  C   LIG     1     -43.275 -37.881 -21.707  1.00  0.00     0.118 C 
HETATM    5  O   LIG     1     -42.927 -38.772 -23.089  1.00  0.00    -0.194 OA
HETATM    6  C   LIG     1     -42.366 -36.613 -21.062  1.00  0.00     0.090 A 
HETATM    7  C   LIG     1     -42.710 -36.126 -20.388  1.00  0.00    -0.014 A 
HETATM    8  C   LIG     1     -44.122 -36.444 -19.542  1.00  0.00     0.024 C 
HETATM    9  O   LIG     1     -41.633 -35.262 -20.479  1.00  0.00     0.000 OA
HETATM   10  C   LIG     1     -40.207 -34.446 -20.758  1.00  0.00     0.063 C 
HETATM   11  C   LIG     1     -40.943 -36.146 -21.892  1.00  0.00     0.007 C 
HETATM   12  C   LIG     1     -40.213 -34.620 -20.698  1.00  0.00     0.174 C 
HETATM   13  O   LIG     1     -41.497 -34.529 -19.424  1.00  0.00    -0.219 OA
ENDROOT
BRANCH  10  14
HETATM   14  C   LIG     1     -39.698 -33.154 -19.772  1.00  0.00    -0.016 A 
HETATM   15  C   LIG     1     -40.358 -31.621 -20.045  1.00  0.00    -0.002 A 
HETATM   16  C   LIG     1     -40.110 -30.437 -19.329  1.00  0.00     0.030 A 
HETATM   17  C   LIG     1     -39.349 -30.843 -18.481  1.00  0.00     0.170 A 
HETATM   18  O   LIG     1     -39.076 -29.622 -17.733  1.00  0.00    -0.187 OA
HETATM   19  C   LIG     1     -38.622 -32.305 -18.117  1.00  0.00     0.221 A 
HETATM   20  O   LIG     1     -37.811 -32.666 -17.202  1.00  0.00    -0.284 OA
HETATM   21  C   LIG     1     -38.803 -33.443 -18.761  1.00  0.00     0.040 A 
ENDBRANCH  10  14
BRANCH  10  22
HETATM   22  O   LIG     1     -39.169 -34.818 -22.114  1.00  0.00     0.000 OA
HETATM   23  C   LIG     1     -38.695 -34.719 -23.097  1.00  0.00     0.002 A 
HETATM   24  C   LIG     1     -39.266 -33.640 -23.084  1.00  0.00     0.165 A 
HETATM   25  C   LIG     1     -38.888 -32.820 -24.280  1.00  0.00     0.083 A 
HETATM   26  O   LIG     1     -39.583 -32.255 -23.764  1.00  0.00    -0.328 OA
BRANCH  23  27
HETATM   27  C   LIG     1     -37.653 -35.390 -24.268  1.00  0.00    -0.045 A 
HETATM   28  C   LIG     1     -37.998 -36.219 -25.273  1.00  0.00     0.025 A 
HETATM   29  C   LIG     1     -39.319 -36.356 -25.093  1.00  0.00     0.054 A 
HETATM   30  O   LIG     1     -37.572 -37.019 -26.587  1.00  0.00     0.000 OA
HETATM   31  C   LIG     1     -36.451 -36.204 -25.947  1.00  0.00     0.012 A 
HETATM   32  O   LIG     1     -38.268 -36.441 -25.941  1.00  0.00     0.000 OA
HETATM   33  C   LIG     1     -35.943 -36.878 -26.798  1.00  0.00     0.023 A 
HETATM   34  C   LIG     1     -36.376 -35.262 -24.474  1.00  0.00     0.022 A 
BRANCH  33  35
HETATM   35  C   LIG     1     -36.331 -37.831 -28.219  1.00  0.00    -0.042 A 
HETATM   36  C   LIG     1     -36.481 -37.309 -29.762  1.00  0.00    -0.027 A 
HETATM   37  C   LIG     1     -36.813 -38.334 -31.030  1.00  0.00     0.081 A 
HETATM   38  C   LIG     1     -36.991 -39.786 -30.752  1.00  0.00     0.134 A 
HETATM   39  O   LIG     1     -37.326 -40.623 -31.961  1.00  0.00    -0.193 OA
HETATM   40  C   LIG     1     -36.834 -40.249 -29.186  1.00  0.00     0.134 A 
HETATM   41  O   LIG     1     -36.977 -41.917 -28.865  1.00  0.00    -0.193 OA
HETATM   42  C   LIG     1     -36.501 -39.337 -27.981  1.00  0.00     0.078 A 
ENDBRANCH  33  35
ENDBRANCH  23  27
ENDBRANCH  10  22
TORSDOF 6
ENDMDL
MODEL 18
REMARK VINA RESULT:      -8.2     13.756     19.153
REMARK  6 active torsions:
REMARK  status: ('A' for Active; 'I' for Inactive)
REMARK    1  A    between atoms: C_10  and  C_11 
REMARK    2  A    between atoms: C_10  and  O_19 
REMARK    3  A    between atoms: C_20  and  C_21 
REMARK    4  A    between atoms: C_23  and  C_24 
REMARK    5  A    between atoms: C_26  and  C_27 
REMARK    6  A    between atoms: C_31  and  C_32 
ROOT
HETATM    1  O   LIG     1     -32.659 -22.479 -36.508  1.00  0.00    -0.190 OA
HETATM    2  C   LIG     1     -32.401 -23.505 -35.367  1.00  0.00     0.133 C 
HETATM    3  C   LIG     1     -31.525 -24.734 -35.302  1.00  0.00     0.051 C 
HETATM    4  C   LIG     1     -31.451 -25.723 -33.935  1.00  0.00     0.118 C 
HETATM    5  O   LIG     1     -30.387 -27.023 -33.914  1.00  0.00    -0.194 OA
HETATM    6  C   LIG     1     -32.475 -25.228 -32.688  1.00  0.00     0.090 A 
HETATM    7  C   LIG     1     -32.912 -24.445 -32.763  1.00  0.00    -0.014 A 
HETATM    8  C   LIG     1     -32.975 -23.461 -34.120  1.00  0.00     0.024 C 
HETATM    9  O   LIG     1     -33.362 -24.584 -31.463  1.00  0.00     0.000 OA
HETATM   10  C   LIG     1     -33.813 -25.046 -29.926  1.00  0.00     0.063 C 
HETATM   11  C   LIG     1     -32.433 -26.112 -31.222  1.00  0.00     0.007 C 
HETATM   12  C   LIG     1     -33.859 -25.140 -30.077  1.00  0.00     0.174 C 
HETATM   13  O   LIG     1     -34.367 -23.815 -31.202  1.00  0.00    -0.219 OA
ENDROOT
BRANCH  10  14
HETATM   14  C   LIG     1     -34.945 -24.160 -29.013  1.00  0.00    -0.016 A 
HETATM   15  C   LIG     1     -34.393 -22.864 -28.079  1.00  0.00    -0.002 A 
HETATM   16  C   LIG     1     -35.155 -21.984 -27.289  1.00  0.00     0.030 A 
HETATM   17  C   LIG     1     -36.271 -22.399 -27.506  1.00  0.00     0.170 A 
HETATM   18  O   LIG     1     -37.075 -21.501 -26.687  1.00  0.00    -0.187 OA
HETATM   19  C   LIG     1     -36.938 -23.658 -28.383  1.00  0.00     0.221 A 
HETATM   20  O   LIG     1     -38.137 -24.050 -28.562  1.00  0.00    -0.284 OA
HETATM   21  C   LIG     1     -36.273 -24.523 -29.127  1.00  0.00     0.040 A 
ENDBRANCH  10  14
BRANCH  10  22
HETATM   22  O   LIG     1     -33.110 -26.431 -29.124  1.00  0.00     0.000 OA
HETATM   23  C   LIG     1     -32.580 -27.011 -28.360  1.00  0.00     0.002 A 
HETATM   24  C   LIG     1     -32.651 -25.959 -27.744  1.00  0.00     0.165 A 
HETATM   25  C   LIG     1     -32.129 -26.120 -26.348  1.00  0.00     0.083 A 
HETATM   26  O   LIG     1     -32.382 -25.123 -26.437  1.00  0.00    -0.328 OA
BRANCH  23  27
HETATM   27  C   LIG     1     -31.935 -28.515 -27.884  1.00  0.00    -0.045 A 
HETATM   28  C   LIG     1     -30.662 -28.930 -28.035  1.00  0.00     0.025 A 
HETATM   29  C   LIG     1     -30.086 -27.878 -28.635  1.00  0.00     0.054 A 
HETATM   30  O   LIG     1     -29.548 -30.038 -27.756  1.00  0.00     0.000 OA
HETATM   31  C   LIG     1     -30.922 -30.358 -27.175  1.00  0.00     0.012 A 
HETATM   32  O   LIG     1     -29.924 -29.002 -27.897  1.00  0.00     0.000 OA
HETATM   33  C   LIG     1     -30.255 -31.346 -27.045  1.00  0.00     0.023 A 
HETATM   34  C   LIG     1     -32.466 -29.542 -27.290  1.00  0.00     0.022 A 
BRANCH  33  35
HETATM   35  C   LIG     1     -28.591 -31.899 -27.062  1.00  0.00    -0.042 A 
HETATM   36  C   LIG     1     -27.321 -31.277 -26.237  1.00  0.00    -0.027 A 
HETATM   37  C   LIG     1     -25.793 -31.930 -26.313  1.00  0.00     0.081 A 
HETATM   38  C   LIG     1     -25.564 -33.125 -27.171  1.00  0.00     0.134 A 
HETATM   39  O   LIG     1     -24.138 -33.616 -27.200  1.00  0.00    -0.193 OA
HETATM   40  C   LIG     1     -26.871 -33.700 -27.976  1.00  0.00     0.134 A 
HETATM   41  O   LIG     1     -26.634 -35.103 -28.916  1.00  0.00    -0.193 OA
HETATM   42  C   LIG     1     -28.314 -33.143 -27.917  1.00  0.00     0.078 A 
ENDBRANCH  33  35
ENDBRANCH  23  27
ENDBRANCH  10  22
TORSDOF 6
ENDMDL
MODEL 19
REMARK VINA RESULT:      -8.2     13.035     17.031
REMARK  6 active torsions:
REMARK  status: ('A' for Active; 'I' for Inactive)
REMARK    1  A    between atoms: C_10  and  C_11 
REMARK    2  A    between atoms: C_10  and  O_19 
REMARK    3  A    between atoms: C_20  and  C_21 
REMARK    4  A    between atoms: C_23  and  C_24 
REMARK    5  A    between atoms: C_26  and  C_27 
REMARK    6  A    between atoms: C_31  and  C_32 
ROOT
HETATM    1  O   LIG     1     -31.927 -20.976 -37.663  1.00  0.00    -0.190 OA
HETATM    2  C   LIG     1     -32.857 -21.572 -36.567  1.00  0.00     0.133 C 
HETATM    3  C   LIG     1     -34.261 -22.125 -36.635  1.00  0.00     0.051 C 
HETATM    4  C   LIG     1     -35.083 -22.682 -35.269  1.00  0.00     0.118 C 
HETATM    5  O   LIG     1     -36.610 -23.360 -35.445  1.00  0.00    -0.194 OA
HETATM    6  C   LIG     1     -34.203 -22.516 -33.838  1.00  0.00     0.090 A 
HETATM    7  C   LIG     1     -33.345 -22.250 -33.879  1.00  0.00    -0.014 A 
HETATM    8  C   LIG     1     -32.529 -21.706 -35.240  1.00  0.00     0.024 C 
HETATM    9  O   LIG     1     -33.220 -22.483 -32.522  1.00  0.00     0.000 OA
HETATM   10  C   LIG     1     -33.378 -22.773 -30.888  1.00  0.00     0.063 C 
HETATM   11  C   LIG     1     -34.905 -23.113 -32.395  1.00  0.00     0.007 C 
HETATM   12  C   LIG     1     -33.472 -22.642 -30.977  1.00  0.00     0.174 C 
HETATM   13  O   LIG     1     -32.187 -21.896 -32.012  1.00  0.00    -0.219 OA
ENDROOT
BRANCH  10  14
HETATM   14  C   LIG     1     -32.131 -22.421 -29.783  1.00  0.00    -0.016 A 
HETATM   15  C   LIG     1     -31.659 -20.811 -29.583  1.00  0.00    -0.002 A 
HETATM   16  C   LIG     1     -30.688 -20.300 -28.704  1.00  0.00     0.030 A 
HETATM   17  C   LIG     1     -30.342 -21.313 -28.140  1.00  0.00     0.170 A 
HETATM   18  O   LIG     1     -29.327 -20.801 -27.228  1.00  0.00    -0.187 OA
HETATM   19  C   LIG     1     -30.714 -22.940 -28.252  1.00  0.00     0.221 A 
HETATM   20  O   LIG     1     -30.299 -23.970 -27.626  1.00  0.00    -0.284 OA
HETATM   21  C   LIG     1     -31.603 -23.478 -29.067  1.00  0.00     0.040 A 
ENDBRANCH  10  14
BRANCH  10  22
HETATM   22  O   LIG     1     -34.807 -23.514 -30.207  1.00  0.00     0.000 OA
HETATM   23  C   LIG     1     -35.588 -23.749 -29.474  1.00  0.00     0.002 A 
HETATM   24  C   LIG     1     -35.063 -22.831 -28.862  1.00  0.00     0.165 A 
HETATM   25  C   LIG     1     -35.836 -22.505 -27.620  1.00  0.00     0.083 A 
HETATM   26  O   LIG     1     -35.017 -21.875 -27.611  1.00  0.00    -0.328 OA
BRANCH  23  27
HETATM   27  C   LIG     1     -36.953 -24.688 -29.076  1.00  0.00    -0.045 A 
HETATM   28  C   LIG     1     -36.952 -25.948 -28.597  1.00  0.00     0.025 A 
HETATM   29  C   LIG     1     -35.643 -26.231 -28.532  1.00  0.00     0.054 A 
HETATM   30  O   LIG     1     -37.775 -27.185 -28.014  1.00  0.00     0.000 OA
HETATM   31  C   LIG     1     -38.623 -25.965 -28.365  1.00  0.00     0.012 A 
HETATM   32  O   LIG     1     -36.895 -26.513 -28.101  1.00  0.00     0.000 OA
HETATM   33  C   LIG     1     -39.387 -26.856 -28.118  1.00  0.00     0.023 A 
HETATM   34  C   LIG     1     -38.227 -24.435 -29.115  1.00  0.00     0.022 A 
BRANCH  33  35
HETATM   35  C   LIG     1     -39.470 -28.430 -27.350  1.00  0.00    -0.042 A 
HETATM   36  C   LIG     1     -38.938 -29.860 -27.940  1.00  0.00    -0.027 A 
HETATM   37  C   LIG     1     -39.041 -31.282 -27.083  1.00  0.00     0.081 A 
HETATM   38  C   LIG     1     -39.649 -31.259 -25.724  1.00  0.00     0.134 A 
HETATM   39  O   LIG     1     -39.730 -32.604 -25.047  1.00  0.00    -0.193 OA
HETATM   40  C   LIG     1     -40.168 -29.799 -25.187  1.00  0.00     0.134 A 
HETATM   41  O   LIG     1     -40.813 -29.750 -23.610  1.00  0.00    -0.193 OA
HETATM   42  C   LIG     1     -40.070 -28.449 -25.938  1.00  0.00     0.078 A 
ENDBRANCH  33  35
ENDBRANCH  23  27
ENDBRANCH  10  22
TORSDOF 6
ENDMDL
MODEL 20
REMARK VINA RESULT:      -8.1     10.244     14.667
REMARK  6 active torsions:
REMARK  status: ('A' for Active; 'I' for Inactive)
REMARK    1  A    between atoms: C_10  and  C_11 
REMARK    2  A    between atoms: C_10  and  O_19 
REMARK    3  A    between atoms: C_20  and  C_21 
REMARK    4  A    between atoms: C_23  and  C_24 
REMARK    5  A    between atoms: C_26  and  C_27 
REMARK    6  A    between atoms: C_31  and  C_32 
ROOT
HETATM    1  O   LIG     1     -42.652 -24.279 -36.738  1.00  0.00    -0.190 OA
HETATM    2  C   LIG     1     -42.303 -25.145 -35.494  1.00  0.00     0.133 C 
HETATM    3  C   LIG     1     -42.907 -26.422 -34.959  1.00  0.00     0.051 C 
HETATM    4  C   LIG     1     -42.364 -27.155 -33.538  1.00  0.00     0.118 C 
HETATM    5  O   LIG     1     -43.032 -28.620 -33.059  1.00  0.00    -0.194 OA
HETATM    6  C   LIG     1     -41.129 -26.301 -32.767  1.00  0.00     0.090 A 
HETATM    7  C   LIG     1     -40.765 -25.589 -33.179  1.00  0.00    -0.014 A 
HETATM    8  C   LIG     1     -41.301 -24.869 -34.596  1.00  0.00     0.024 C 
HETATM    9  O   LIG     1     -39.817 -25.508 -32.175  1.00  0.00     0.000 OA
HETATM   10  C   LIG     1     -38.864 -25.599 -30.810  1.00  0.00     0.063 C 
HETATM   11  C   LIG     1     -40.447 -26.985 -31.353  1.00  0.00     0.007 C 
HETATM   12  C   LIG     1     -39.045 -25.563 -30.805  1.00  0.00     0.174 C 
HETATM   13  O   LIG     1     -39.224 -24.360 -32.146  1.00  0.00    -0.219 OA
ENDROOT
BRANCH  10  14
HETATM   14  C   LIG     1     -37.682 -24.427 -30.454  1.00  0.00    -0.016 A 
HETATM   15  C   LIG     1     -37.777 -23.604 -28.981  1.00  0.00    -0.002 A 
HETATM   16  C   LIG     1     -36.892 -22.636 -28.475  1.00  0.00     0.030 A 
HETATM   17  C   LIG     1     -36.065 -22.606 -29.358  1.00  0.00     0.170 A 
HETATM   18  O   LIG     1     -35.141 -21.599 -28.852  1.00  0.00    -0.187 OA
HETATM   19  C   LIG     1     -35.865 -23.346 -30.845  1.00  0.00     0.221 A 
HETATM   20  O   LIG     1     -34.964 -23.260 -31.742  1.00  0.00    -0.284 OA
HETATM   21  C   LIG     1     -36.670 -24.247 -31.377  1.00  0.00     0.040 A 
ENDBRANCH  10  14
BRANCH  10  22
HETATM   22  O   LIG     1     -38.970 -26.934 -29.687  1.00  0.00     0.000 OA
HETATM   23  C   LIG     1     -38.666 -27.822 -29.122  1.00  0.00     0.002 A 
HETATM   24  C   LIG     1     -37.578 -27.562 -29.611  1.00  0.00     0.165 A 
HETATM   25  C   LIG     1     -36.516 -28.471 -29.070  1.00  0.00     0.083 A 
HETATM   26  O   LIG     1     -36.041 -27.871 -29.764  1.00  0.00    -0.328 OA
BRANCH  23  27
HETATM   27  C   LIG     1     -39.107 -29.057 -28.033  1.00  0.00    -0.045 A 
HETATM   28  C   LIG     1     -39.738 -28.903 -26.852  1.00  0.00     0.025 A 
HETATM   29  C   LIG     1     -39.904 -27.574 -26.786  1.00  0.00     0.054 A 
HETATM   30  O   LIG     1     -40.427 -29.572 -25.577  1.00  0.00     0.000 OA
HETATM   31  C   LIG     1     -39.884 -30.565 -26.601  1.00  0.00     0.012 A 
HETATM   32  O   LIG     1     -40.302 -28.797 -26.364  1.00  0.00     0.000 OA
HETATM   33  C   LIG     1     -40.200 -31.204 -25.637  1.00  0.00     0.023 A 
HETATM   34  C   LIG     1     -38.971 -30.349 -28.078  1.00  0.00     0.022 A 
BRANCH  33  35
HETATM   35  C   LIG     1     -41.153 -31.104 -24.168  1.00  0.00    -0.042 A 
HETATM   36  C   LIG     1     -42.687 -31.623 -23.934  1.00  0.00    -0.027 A 
HETATM   37  C   LIG     1     -43.463 -31.504 -22.467  1.00  0.00     0.081 A 
HETATM   38  C   LIG     1     -42.738 -30.894 -21.318  1.00  0.00     0.134 A 
HETATM   39  O   LIG     1     -43.541 -30.798 -20.045  1.00  0.00    -0.193 OA
HETATM   40  C   LIG     1     -41.206 -30.389 -21.614  1.00  0.00     0.134 A 
HETATM   41  O   LIG     1     -40.346 -29.743 -20.291  1.00  0.00    -0.193 OA
HETATM   42  C   LIG     1     -40.437 -30.501 -22.952  1.00  0.00     0.078 A 
ENDBRANCH  33  35
ENDBRANCH  23  27
ENDBRANCH  10  22
TORSDOF 6
ENDMDL
