MODEL 1
REMARK VINA RESULT:      -9.0      0.000      0.000
REMARK  6 active torsions:
REMARK  status: ('A' for Active; 'I' for Inactive)
REMARK    1  A    between atoms: C_6  and  C_27 
REMARK    2  A    between atoms: C_7  and  O_9 
REMARK    3  A    between atoms: C_10  and  C_11 
REMARK    4  A    between atoms: C_12  and  C_13 
REMARK    5  A    between atoms: C_16  and  C_18 
REMARK    6  A    between atoms: C_31  and  C_32 
ROOT
HETATM    1  O   LIG     1     -38.818 -31.892 -16.621  1.00  0.00     0.000 OA
HETATM    2  C   LIG     1     -40.003 -31.035 -16.126  1.00  0.00     0.038 A 
HETATM    3  O   LIG     1     -41.368 -30.580 -17.005  1.00  0.00     0.000 OA
HETATM    4  C   LIG     1     -41.971 -30.520 -18.178  1.00  0.00     0.001 A 
HETATM    5  C   LIG     1     -43.411 -29.902 -18.699  1.00  0.00     0.007 A 
HETATM    6  C   LIG     1     -43.849 -30.010 -20.053  1.00  0.00     0.100 A 
HETATM    7  C   LIG     1     -42.885 -30.797 -21.023  1.00  0.00     0.066 A 
HETATM    8  C   LIG     1     -41.442 -31.448 -20.561  1.00  0.00     0.197 A 
HETATM    9  O   LIG     1     -40.513 -31.924 -20.823  1.00  0.00    -0.286 OA
HETATM   10  C   LIG     1     -41.082 -31.187 -19.035  1.00  0.00     0.037 A 
HETATM   11  C   LIG     1     -39.842 -31.774 -18.420  1.00  0.00     0.013 C 
HETATM   12  C   LIG     1     -39.875 -31.138 -16.758  1.00  0.00     0.175 A 
HETATM   13  O   LIG     1     -38.351 -31.771 -16.194  1.00  0.00    -0.219 OA
HETATM   14  O   LIG     1     -45.228 -29.479 -20.662  1.00  0.00    -0.306 OA
HETATM   15  C   LIG     1     -46.005 -28.832 -19.632  1.00  0.00     0.114 C 
HETATM   16  C   LIG     1     -45.701 -28.425 -18.179  1.00  0.00     0.135 C 
HETATM   17  O   LIG     1     -46.580 -27.731 -17.209  1.00  0.00    -0.192 OA
HETATM   18  C   LIG     1     -44.281 -29.053 -17.442  1.00  0.00     0.085 C 
ENDROOT
BRANCH   2  19
HETATM   19  C   LIG     1     -40.007 -30.521 -14.490  1.00  0.00     0.006 A 
HETATM   20  C   LIG     1     -39.664 -30.743 -13.515  1.00  0.00     0.010 A 
HETATM   21  C   LIG     1     -40.432 -29.713 -13.874  1.00  0.00     0.030 A 
BRANCH  20  22
HETATM   22  C   LIG     1     -39.659 -30.247 -11.953  1.00  0.00     0.087 A 
HETATM   23  C   LIG     1     -39.348 -30.402 -11.071  1.00  0.00     0.244 A 
HETATM   24  O   LIG     1     -39.756 -29.609  -9.726  1.00  0.00    -0.193 OA
HETATM   25  C   LIG     1     -38.808 -31.249 -11.687  1.00  0.00     0.149 A 
HETATM   26  O   LIG     1     -38.482 -31.447 -10.873  1.00  0.00    -0.331 OA
ENDBRANCH  20  22
ENDBRANCH   2  19
BRANCH   1  27
HETATM   27  C   LIG     1     -37.892 -32.634 -17.584  1.00  0.00     0.003 A 
HETATM   28  C   LIG     1     -36.878 -32.037 -17.688  1.00  0.00     0.020 A 
HETATM   29  C   LIG     1     -35.590 -32.256 -18.641  1.00  0.00     0.115 A 
HETATM   30  C   LIG     1     -35.706 -33.659 -19.487  1.00  0.00     0.108 A 
HETATM   31  O   LIG     1     -34.439 -31.247 -18.760  1.00  0.00    -0.194 OA
HETATM   32  C   LIG     1     -36.979 -34.587 -19.354  1.00  0.00     0.115 A 
HETATM   33  O   LIG     1     -37.216 -35.987 -20.090  1.00  0.00    -0.194 OA
HETATM   34  C   LIG     1     -38.035 -34.017 -18.416  1.00  0.00     0.023 A 
ENDBRANCH   1  27
BRANCH  15  35
HETATM   35  C   LIG     1     -47.488 -28.158 -20.289  1.00  0.00    -0.013 A 
HETATM   36  C   LIG     1     -48.633 -29.181 -20.731  1.00  0.00     0.031 A 
HETATM   37  C   LIG     1     -50.074 -28.639 -21.316  1.00  0.00     0.060 A 
HETATM   38  C   LIG     1     -50.333 -27.084 -21.441  1.00  0.00     0.130 A 
HETATM   39  O   LIG     1     -51.641 -26.660 -22.028  1.00  0.00    -0.193 OA
HETATM   40  C   LIG     1     -49.199 -26.026 -20.953  1.00  0.00     0.134 A 
HETATM   41  O   LIG     1     -49.439 -24.429 -21.063  1.00  0.00    -0.193 OA
HETATM   42  C   LIG     1     -47.799 -26.596 -20.366  1.00  0.00     0.080 A 
ENDBRANCH  15  35
TORSDOF 6
ENDMDL
MODEL 2
REMARK VINA RESULT:      -8.8      8.063     11.430
REMARK  6 active torsions:
REMARK  status: ('A' for Active; 'I' for Inactive)
REMARK    1  A    between atoms: C_6  and  C_27 
REMARK    2  A    between atoms: C_7  and  O_9 
REMARK    3  A    between atoms: C_10  and  C_11 
REMARK    4  A    between atoms: C_12  and  C_13 
REMARK    5  A    between atoms: C_16  and  C_18 
REMARK    6  A    between atoms: C_31  and  C_32 
ROOT
HETATM    1  O   LIG     1     -39.263 -29.110 -10.547  1.00  0.00     0.000 OA
HETATM    2  C   LIG     1     -38.906 -30.495  -9.966  1.00  0.00     0.038 A 
HETATM    3  O   LIG     1     -39.777 -31.929 -10.143  1.00  0.00     0.000 OA
HETATM    4  C   LIG     1     -40.889 -32.516 -10.544  1.00  0.00     0.001 A 
HETATM    5  C   LIG     1     -41.446 -34.071 -10.504  1.00  0.00     0.007 A 
HETATM    6  C   LIG     1     -42.704 -34.451 -11.057  1.00  0.00     0.100 A 
HETATM    7  C   LIG     1     -43.524 -33.295 -11.751  1.00  0.00     0.066 A 
HETATM    8  C   LIG     1     -43.017 -31.727 -11.836  1.00  0.00     0.197 A 
HETATM    9  O   LIG     1     -43.220 -30.699 -12.079  1.00  0.00    -0.286 OA
HETATM   10  C   LIG     1     -41.621 -31.467 -11.120  1.00  0.00     0.037 A 
HETATM   11  C   LIG     1     -40.969 -30.114 -11.165  1.00  0.00     0.013 C 
HETATM   12  C   LIG     1     -39.503 -30.339 -10.180  1.00  0.00     0.175 A 
HETATM   13  O   LIG     1     -38.907 -28.700 -10.198  1.00  0.00    -0.219 OA
HETATM   14  O   LIG     1     -43.330 -35.922 -11.103  1.00  0.00    -0.306 OA
HETATM   15  C   LIG     1     -42.432 -36.858 -10.470  1.00  0.00     0.114 C 
HETATM   16  C   LIG     1     -41.138 -36.693  -9.653  1.00  0.00     0.135 C 
HETATM   17  O   LIG     1     -40.303 -37.741  -9.021  1.00  0.00    -0.192 OA
HETATM   18  C   LIG     1     -40.368 -35.156  -9.655  1.00  0.00     0.085 C 
ENDROOT
BRANCH   2  19
HETATM   19  C   LIG     1     -37.440 -30.658  -9.091  1.00  0.00     0.006 A 
HETATM   20  C   LIG     1     -37.016 -30.939  -8.165  1.00  0.00     0.010 A 
HETATM   21  C   LIG     1     -36.363 -30.485  -9.235  1.00  0.00     0.030 A 
BRANCH  20  22
HETATM   22  C   LIG     1     -35.615 -31.105  -7.331  1.00  0.00     0.087 A 
HETATM   23  C   LIG     1     -35.204 -31.289  -6.496  1.00  0.00     0.244 A 
HETATM   24  O   LIG     1     -33.633 -31.217  -6.132  1.00  0.00    -0.193 OA
HETATM   25  C   LIG     1     -36.348 -31.432  -6.256  1.00  0.00     0.149 A 
HETATM   26  O   LIG     1     -36.017 -31.613  -5.440  1.00  0.00    -0.331 OA
ENDBRANCH  20  22
ENDBRANCH   2  19
BRANCH   1  27
HETATM   27  C   LIG     1     -40.083 -28.003 -11.208  1.00  0.00     0.003 A 
HETATM   28  C   LIG     1     -39.547 -27.664 -12.204  1.00  0.00     0.020 A 
HETATM   29  C   LIG     1     -39.864 -26.469 -13.247  1.00  0.00     0.115 A 
HETATM   30  C   LIG     1     -41.281 -25.722 -12.885  1.00  0.00     0.108 A 
HETATM   31  O   LIG     1     -38.925 -26.071 -14.395  1.00  0.00    -0.194 OA
HETATM   32  C   LIG     1     -42.132 -26.157 -11.625  1.00  0.00     0.115 A 
HETATM   33  O   LIG     1     -43.536 -25.542 -11.168  1.00  0.00    -0.194 OA
HETATM   34  C   LIG     1     -41.478 -27.274 -10.823  1.00  0.00     0.023 A 
ENDBRANCH   1  27
BRANCH  15  35
HETATM   35  C   LIG     1     -43.131 -38.469 -10.424  1.00  0.00    -0.013 A 
HETATM   36  C   LIG     1     -44.342 -38.721  -9.412  1.00  0.00     0.031 A 
HETATM   37  C   LIG     1     -45.088 -40.187  -9.333  1.00  0.00     0.060 A 
HETATM   38  C   LIG     1     -44.603 -41.364 -10.271  1.00  0.00     0.130 A 
HETATM   39  O   LIG     1     -45.289 -42.683 -10.111  1.00  0.00    -0.193 OA
HETATM   40  C   LIG     1     -43.405 -41.115 -11.340  1.00  0.00     0.134 A 
HETATM   41  O   LIG     1     -42.892 -42.299 -12.318  1.00  0.00    -0.193 OA
HETATM   42  C   LIG     1     -42.704 -39.653 -11.403  1.00  0.00     0.080 A 
ENDBRANCH  15  35
TORSDOF 6
ENDMDL
MODEL 3
REMARK VINA RESULT:      -8.8      7.844     12.013
REMARK  6 active torsions:
REMARK  status: ('A' for Active; 'I' for Inactive)
REMARK    1  A    between atoms: C_6  and  C_27 
REMARK    2  A    between atoms: C_7  and  O_9 
REMARK    3  A    between atoms: C_10  and  C_11 
REMARK    4  A    between atoms: C_12  and  C_13 
REMARK    5  A    between atoms: C_16  and  C_18 
REMARK    6  A    between atoms: C_31  and  C_32 
ROOT
HETATM    1  O   LIG     1     -39.668 -29.840  -9.760  1.00  0.00     0.000 OA
HETATM    2  C   LIG     1     -39.330 -31.212  -9.139  1.00  0.00     0.038 A 
HETATM    3  O   LIG     1     -40.045 -32.697  -9.497  1.00  0.00     0.000 OA
HETATM    4  C   LIG     1     -41.014 -33.349 -10.112  1.00  0.00     0.001 A 
HETATM    5  C   LIG     1     -41.455 -34.938 -10.198  1.00  0.00     0.007 A 
HETATM    6  C   LIG     1     -42.554 -35.390 -10.988  1.00  0.00     0.100 A 
HETATM    7  C   LIG     1     -43.307 -34.275 -11.814  1.00  0.00     0.066 A 
HETATM    8  C   LIG     1     -42.907 -32.675 -11.781  1.00  0.00     0.197 A 
HETATM    9  O   LIG     1     -43.133 -31.657 -12.046  1.00  0.00    -0.286 OA
HETATM   10  C   LIG     1     -41.697 -32.338 -10.806  1.00  0.00     0.037 A 
HETATM   11  C   LIG     1     -41.147 -30.942 -10.708  1.00  0.00     0.013 C 
HETATM   12  C   LIG     1     -39.885 -31.092  -9.461  1.00  0.00     0.175 A 
HETATM   13  O   LIG     1     -39.416 -29.416  -9.345  1.00  0.00    -0.219 OA
HETATM   14  O   LIG     1     -43.051 -36.898 -11.172  1.00  0.00    -0.306 OA
HETATM   15  C   LIG     1     -42.226 -37.786 -10.389  1.00  0.00     0.114 C 
HETATM   16  C   LIG     1     -41.128 -37.554  -9.335  1.00  0.00     0.135 C 
HETATM   17  O   LIG     1     -40.357 -38.559  -8.567  1.00  0.00    -0.192 OA
HETATM   18  C   LIG     1     -40.485 -35.969  -9.171  1.00  0.00     0.085 C 
ENDROOT
BRANCH   2  19
HETATM   19  C   LIG     1     -38.051 -31.296  -7.999  1.00  0.00     0.006 A 
HETATM   20  C   LIG     1     -37.004 -31.385  -7.883  1.00  0.00     0.010 A 
HETATM   21  C   LIG     1     -37.909 -31.301  -6.908  1.00  0.00     0.030 A 
BRANCH  20  22
HETATM   22  C   LIG     1     -35.780 -31.456  -6.796  1.00  0.00     0.087 A 
HETATM   23  C   LIG     1     -34.843 -31.495  -6.656  1.00  0.00     0.244 A 
HETATM   24  O   LIG     1     -34.061 -31.679  -5.256  1.00  0.00    -0.193 OA
HETATM   25  C   LIG     1     -34.924 -31.403  -7.828  1.00  0.00     0.149 A 
HETATM   26  O   LIG     1     -34.028 -31.440  -7.758  1.00  0.00    -0.331 OA
ENDBRANCH  20  22
ENDBRANCH   2  19
BRANCH   1  27
HETATM   27  C   LIG     1     -40.424 -28.775 -10.555  1.00  0.00     0.003 A 
HETATM   28  C   LIG     1     -40.878 -27.981  -9.808  1.00  0.00     0.020 A 
HETATM   29  C   LIG     1     -41.863 -26.720 -10.043  1.00  0.00     0.115 A 
HETATM   30  C   LIG     1     -42.126 -26.458 -11.642  1.00  0.00     0.108 A 
HETATM   31  O   LIG     1     -42.497 -25.913  -8.900  1.00  0.00    -0.194 OA
HETATM   32  C   LIG     1     -41.491 -27.405 -12.737  1.00  0.00     0.115 A 
HETATM   33  O   LIG     1     -41.637 -27.256 -14.323  1.00  0.00    -0.194 OA
HETATM   34  C   LIG     1     -40.677 -28.544 -12.139  1.00  0.00     0.023 A 
ENDBRANCH   1  27
BRANCH  15  35
HETATM   35  C   LIG     1     -42.803 -39.442 -10.497  1.00  0.00    -0.013 A 
HETATM   36  C   LIG     1     -42.647 -40.189 -11.901  1.00  0.00     0.031 A 
HETATM   37  C   LIG     1     -43.118 -41.756 -12.083  1.00  0.00     0.060 A 
HETATM   38  C   LIG     1     -43.733 -42.537 -10.854  1.00  0.00     0.130 A 
HETATM   39  O   LIG     1     -44.188 -43.940 -11.101  1.00  0.00    -0.193 OA
HETATM   40  C   LIG     1     -43.856 -41.811  -9.405  1.00  0.00     0.134 A 
HETATM   41  O   LIG     1     -44.474 -42.588  -8.126  1.00  0.00    -0.193 OA
HETATM   42  C   LIG     1     -43.366 -40.272  -9.257  1.00  0.00     0.080 A 
ENDBRANCH  15  35
TORSDOF 6
ENDMDL
MODEL 4
REMARK VINA RESULT:      -8.3      7.559     11.389
REMARK  6 active torsions:
REMARK  status: ('A' for Active; 'I' for Inactive)
REMARK    1  A    between atoms: C_6  and  C_27 
REMARK    2  A    between atoms: C_7  and  O_9 
REMARK    3  A    between atoms: C_10  and  C_11 
REMARK    4  A    between atoms: C_12  and  C_13 
REMARK    5  A    between atoms: C_16  and  C_18 
REMARK    6  A    between atoms: C_31  and  C_32 
ROOT
HETATM    1  O   LIG     1     -38.339 -34.795 -23.019  1.00  0.00     0.000 OA
HETATM    2  C   LIG     1     -37.986 -34.543 -24.501  1.00  0.00     0.038 A 
HETATM    3  O   LIG     1     -38.323 -33.161 -25.407  1.00  0.00     0.000 OA
HETATM    4  C   LIG     1     -38.956 -32.006 -25.485  1.00  0.00     0.001 A 
HETATM    5  C   LIG     1     -39.097 -30.850 -26.657  1.00  0.00     0.007 A 
HETATM    6  C   LIG     1     -39.833 -29.643 -26.462  1.00  0.00     0.100 A 
HETATM    7  C   LIG     1     -40.477 -29.457 -25.033  1.00  0.00     0.066 A 
HETATM    8  C   LIG     1     -40.361 -30.567 -23.818  1.00  0.00     0.197 A 
HETATM    9  O   LIG     1     -40.657 -30.906 -22.841  1.00  0.00    -0.286 OA
HETATM   10  C   LIG     1     -39.556 -31.877 -24.223  1.00  0.00     0.037 A 
HETATM   11  C   LIG     1     -39.285 -32.961 -23.217  1.00  0.00     0.013 C 
HETATM   12  C   LIG     1     -38.435 -34.197 -24.175  1.00  0.00     0.175 A 
HETATM   13  O   LIG     1     -38.289 -35.435 -22.955  1.00  0.00    -0.219 OA
HETATM   14  O   LIG     1     -40.012 -28.447 -27.507  1.00  0.00    -0.306 OA
HETATM   15  C   LIG     1     -39.322 -28.760 -28.735  1.00  0.00     0.114 C 
HETATM   16  C   LIG     1     -38.630 -30.029 -29.265  1.00  0.00     0.135 C 
HETATM   17  O   LIG     1     -37.968 -30.244 -30.573  1.00  0.00    -0.192 OA
HETATM   18  C   LIG     1     -38.319 -31.305 -28.156  1.00  0.00     0.085 C 
ENDROOT
BRANCH   2  19
HETATM   19  C   LIG     1     -37.098 -35.745 -25.342  1.00  0.00     0.006 A 
HETATM   20  C   LIG     1     -37.175 -36.607 -25.949  1.00  0.00     0.010 A 
HETATM   21  C   LIG     1     -36.051 -36.034 -25.518  1.00  0.00     0.030 A 
BRANCH  20  22
HETATM   22  C   LIG     1     -36.329 -37.750 -26.762  1.00  0.00     0.087 A 
HETATM   23  C   LIG     1     -36.359 -38.552 -27.268  1.00  0.00     0.244 A 
HETATM   24  O   LIG     1     -35.114 -39.428 -27.804  1.00  0.00    -0.193 OA
HETATM   25  C   LIG     1     -37.499 -38.321 -27.084  1.00  0.00     0.149 A 
HETATM   26  O   LIG     1     -37.591 -39.080 -27.558  1.00  0.00    -0.331 OA
ENDBRANCH  20  22
ENDBRANCH   2  19
BRANCH   1  27
HETATM   27  C   LIG     1     -38.987 -34.602 -21.649  1.00  0.00     0.003 A 
HETATM   28  C   LIG     1     -38.147 -34.394 -20.846  1.00  0.00     0.020 A 
HETATM   29  C   LIG     1     -38.206 -34.240 -19.237  1.00  0.00     0.115 A 
HETATM   30  C   LIG     1     -39.756 -34.231 -18.695  1.00  0.00     0.108 A 
HETATM   31  O   LIG     1     -36.959 -34.158 -18.345  1.00  0.00    -0.194 OA
HETATM   32  C   LIG     1     -40.968 -34.409 -19.695  1.00  0.00     0.115 A 
HETATM   33  O   LIG     1     -42.523 -34.394 -19.316  1.00  0.00    -0.194 OA
HETATM   34  C   LIG     1     -40.525 -34.609 -21.138  1.00  0.00     0.023 A 
ENDBRANCH   1  27
BRANCH  15  35
HETATM   35  C   LIG     1     -39.575 -27.504 -29.938  1.00  0.00    -0.013 A 
HETATM   36  C   LIG     1     -40.926 -27.555 -30.788  1.00  0.00     0.031 A 
HETATM   37  C   LIG     1     -41.269 -26.395 -31.905  1.00  0.00     0.060 A 
HETATM   38  C   LIG     1     -40.249 -25.211 -32.143  1.00  0.00     0.130 A 
HETATM   39  O   LIG     1     -40.596 -24.220 -33.207  1.00  0.00    -0.193 OA
HETATM   40  C   LIG     1     -38.890 -25.114 -31.255  1.00  0.00     0.134 A 
HETATM   41  O   LIG     1     -37.830 -23.910 -31.471  1.00  0.00    -0.193 OA
HETATM   42  C   LIG     1     -38.593 -26.265 -30.151  1.00  0.00     0.080 A 
ENDBRANCH  15  35
TORSDOF 6
ENDMDL
MODEL 5
REMARK VINA RESULT:      -8.3      2.483      6.320
REMARK  6 active torsions:
REMARK  status: ('A' for Active; 'I' for Inactive)
REMARK    1  A    between atoms: C_6  and  C_27 
REMARK    2  A    between atoms: C_7  and  O_9 
REMARK    3  A    between atoms: C_10  and  C_11 
REMARK    4  A    between atoms: C_12  and  C_13 
REMARK    5  A    between atoms: C_16  and  C_18 
REMARK    6  A    between atoms: C_31  and  C_32 
ROOT
HETATM    1  O   LIG     1     -39.826 -30.609 -15.213  1.00  0.00     0.000 OA
HETATM    2  C   LIG     1     -40.028 -31.186 -16.630  1.00  0.00     0.038 A 
HETATM    3  O   LIG     1     -41.373 -30.988 -17.628  1.00  0.00     0.000 OA
HETATM    4  C   LIG     1     -42.617 -30.567 -17.752  1.00  0.00     0.001 A 
HETATM    5  C   LIG     1     -43.721 -30.589 -18.982  1.00  0.00     0.007 A 
HETATM    6  C   LIG     1     -45.021 -30.014 -18.858  1.00  0.00     0.100 A 
HETATM    7  C   LIG     1     -45.331 -29.314 -17.478  1.00  0.00     0.066 A 
HETATM    8  C   LIG     1     -44.268 -29.246 -16.219  1.00  0.00     0.197 A 
HETATM    9  O   LIG     1     -44.064 -29.006 -15.190  1.00  0.00    -0.286 OA
HETATM   10  C   LIG     1     -42.890 -29.985 -16.505  1.00  0.00     0.037 A 
HETATM   11  C   LIG     1     -41.773 -29.958 -15.498  1.00  0.00     0.013 C 
HETATM   12  C   LIG     1     -40.519 -30.965 -16.260  1.00  0.00     0.175 A 
HETATM   13  O   LIG     1     -39.347 -30.965 -14.968  1.00  0.00    -0.219 OA
HETATM   14  O   LIG     1     -46.155 -29.950 -19.983  1.00  0.00    -0.306 OA
HETATM   15  C   LIG     1     -45.687 -30.591 -21.189  1.00  0.00     0.114 C 
HETATM   16  C   LIG     1     -44.441 -31.429 -21.525  1.00  0.00     0.135 C 
HETATM   17  O   LIG     1     -44.074 -32.068 -22.811  1.00  0.00    -0.192 OA
HETATM   18  C   LIG     1     -43.147 -31.447 -20.393  1.00  0.00     0.085 C 
ENDROOT
BRANCH   2  19
HETATM   19  C   LIG     1     -38.747 -32.083 -17.334  1.00  0.00     0.006 A 
HETATM   20  C   LIG     1     -37.768 -32.024 -17.728  1.00  0.00     0.010 A 
HETATM   21  C   LIG     1     -38.528 -33.115 -17.645  1.00  0.00     0.030 A 
BRANCH  20  22
HETATM   22  C   LIG     1     -36.538 -32.880 -18.391  1.00  0.00     0.087 A 
HETATM   23  C   LIG     1     -35.658 -32.865 -18.742  1.00  0.00     0.244 A 
HETATM   24  O   LIG     1     -34.852 -34.076 -19.441  1.00  0.00    -0.193 OA
HETATM   25  C   LIG     1     -35.813 -31.752 -18.389  1.00  0.00     0.149 A 
HETATM   26  O   LIG     1     -34.976 -31.675 -18.710  1.00  0.00    -0.331 OA
ENDBRANCH  20  22
ENDBRANCH   2  19
BRANCH   1  27
HETATM   27  C   LIG     1     -40.156 -29.941 -13.878  1.00  0.00     0.003 A 
HETATM   28  C   LIG     1     -39.988 -30.716 -13.003  1.00  0.00     0.020 A 
HETATM   29  C   LIG     1     -40.287 -30.630 -11.416  1.00  0.00     0.115 A 
HETATM   30  C   LIG     1     -40.769 -29.123 -10.979  1.00  0.00     0.108 A 
HETATM   31  O   LIG     1     -40.171 -31.830 -10.464  1.00  0.00    -0.194 OA
HETATM   32  C   LIG     1     -40.938 -27.978 -12.057  1.00  0.00     0.115 A 
HETATM   33  O   LIG     1     -41.371 -26.465 -11.776  1.00  0.00    -0.194 OA
HETATM   34  C   LIG     1     -40.641 -28.448 -13.475  1.00  0.00     0.023 A 
ENDBRANCH   1  27
BRANCH  15  35
HETATM   35  C   LIG     1     -46.944 -30.617 -22.417  1.00  0.00    -0.013 A 
HETATM   36  C   LIG     1     -47.273 -29.246 -23.168  1.00  0.00     0.031 A 
HETATM   37  C   LIG     1     -48.403 -29.185 -24.364  1.00  0.00     0.060 A 
HETATM   38  C   LIG     1     -49.175 -30.500 -24.779  1.00  0.00     0.130 A 
HETATM   39  O   LIG     1     -50.224 -30.365 -25.836  1.00  0.00    -0.193 OA
HETATM   40  C   LIG     1     -48.821 -31.915 -24.061  1.00  0.00     0.134 A 
HETATM   41  O   LIG     1     -49.590 -33.280 -24.471  1.00  0.00    -0.193 OA
HETATM   42  C   LIG     1     -47.690 -31.941 -22.899  1.00  0.00     0.080 A 
ENDBRANCH  15  35
TORSDOF 6
ENDMDL
MODEL 6
REMARK VINA RESULT:      -8.3      4.725      7.988
REMARK  6 active torsions:
REMARK  status: ('A' for Active; 'I' for Inactive)
REMARK    1  A    between atoms: C_6  and  C_27 
REMARK    2  A    between atoms: C_7  and  O_9 
REMARK    3  A    between atoms: C_10  and  C_11 
REMARK    4  A    between atoms: C_12  and  C_13 
REMARK    5  A    between atoms: C_16  and  C_18 
REMARK    6  A    between atoms: C_31  and  C_32 
ROOT
HETATM    1  O   LIG     1     -39.381 -32.022  -8.959  1.00  0.00     0.000 OA
HETATM    2  C   LIG     1     -40.416 -32.537  -9.983  1.00  0.00     0.038 A 
HETATM    3  O   LIG     1     -41.055 -31.695 -11.297  1.00  0.00     0.000 OA
HETATM    4  C   LIG     1     -41.181 -30.543 -11.929  1.00  0.00     0.001 A 
HETATM    5  C   LIG     1     -41.999 -30.057 -13.279  1.00  0.00     0.007 A 
HETATM    6  C   LIG     1     -41.932 -28.723 -13.780  1.00  0.00     0.100 A 
HETATM    7  C   LIG     1     -40.990 -27.739 -12.983  1.00  0.00     0.066 A 
HETATM    8  C   LIG     1     -40.137 -28.167 -11.637  1.00  0.00     0.197 A 
HETATM    9  O   LIG     1     -39.522 -27.885 -10.801  1.00  0.00    -0.286 OA
HETATM   10  C   LIG     1     -40.371 -29.673 -11.184  1.00  0.00     0.037 A 
HETATM   11  C   LIG     1     -39.616 -30.258 -10.023  1.00  0.00     0.013 C 
HETATM   12  C   LIG     1     -40.282 -31.904  -9.896  1.00  0.00     0.175 A 
HETATM   13  O   LIG     1     -39.438 -32.430  -8.463  1.00  0.00    -0.219 OA
HETATM   14  O   LIG     1     -42.652 -28.149 -15.087  1.00  0.00    -0.306 OA
HETATM   15  C   LIG     1     -43.429 -29.189 -15.717  1.00  0.00     0.114 C 
HETATM   16  C   LIG     1     -43.815 -30.620 -15.299  1.00  0.00     0.135 C 
HETATM   17  O   LIG     1     -44.653 -31.602 -16.026  1.00  0.00    -0.192 OA
HETATM   18  C   LIG     1     -42.994 -31.323 -13.963  1.00  0.00     0.085 C 
ENDROOT
BRANCH   2  19
HETATM   19  C   LIG     1     -40.957 -34.158  -9.847  1.00  0.00     0.006 A 
HETATM   20  C   LIG     1     -40.921 -35.119 -10.286  1.00  0.00     0.010 A 
HETATM   21  C   LIG     1     -41.598 -34.768  -9.193  1.00  0.00     0.030 A 
BRANCH  20  22
HETATM   22  C   LIG     1     -41.430 -36.671 -10.152  1.00  0.00     0.087 A 
HETATM   23  C   LIG     1     -41.515 -37.519 -10.570  1.00  0.00     0.244 A 
HETATM   24  O   LIG     1     -42.262 -38.830  -9.998  1.00  0.00    -0.193 OA
HETATM   25  C   LIG     1     -40.940 -36.888 -11.382  1.00  0.00     0.149 A 
HETATM   26  O   LIG     1     -40.993 -37.667 -11.829  1.00  0.00    -0.331 OA
ENDBRANCH  20  22
ENDBRANCH   2  19
BRANCH   1  27
HETATM   27  C   LIG     1     -38.488 -31.047  -8.193  1.00  0.00     0.003 A 
HETATM   28  C   LIG     1     -37.356 -31.323  -8.383  1.00  0.00     0.020 A 
HETATM   29  C   LIG     1     -35.984 -30.743  -7.754  1.00  0.00     0.115 A 
HETATM   30  C   LIG     1     -36.271 -29.439  -6.798  1.00  0.00     0.108 A 
HETATM   31  O   LIG     1     -34.605 -31.373  -7.997  1.00  0.00    -0.194 OA
HETATM   32  C   LIG     1     -37.743 -28.922  -6.546  1.00  0.00     0.115 A 
HETATM   33  O   LIG     1     -38.169 -27.656  -5.667  1.00  0.00    -0.194 OA
HETATM   34  C   LIG     1     -38.798 -29.770  -7.245  1.00  0.00     0.023 A 
ENDBRANCH   1  27
BRANCH  15  35
HETATM   35  C   LIG     1     -44.306 -28.568 -17.106  1.00  0.00    -0.013 A 
HETATM   36  C   LIG     1     -44.025 -29.249 -18.524  1.00  0.00     0.031 A 
HETATM   37  C   LIG     1     -44.834 -28.762 -19.873  1.00  0.00     0.060 A 
HETATM   38  C   LIG     1     -45.906 -27.605 -19.769  1.00  0.00     0.130 A 
HETATM   39  O   LIG     1     -46.566 -27.176 -21.040  1.00  0.00    -0.193 OA
HETATM   40  C   LIG     1     -46.242 -26.932 -18.328  1.00  0.00     0.134 A 
HETATM   41  O   LIG     1     -47.340 -25.750 -18.189  1.00  0.00    -0.193 OA
HETATM   42  C   LIG     1     -45.438 -27.448 -17.017  1.00  0.00     0.080 A 
ENDBRANCH  15  35
TORSDOF 6
ENDMDL
MODEL 7
REMARK VINA RESULT:      -8.2      3.304      4.169
REMARK  6 active torsions:
REMARK  status: ('A' for Active; 'I' for Inactive)
REMARK    1  A    between atoms: C_6  and  C_27 
REMARK    2  A    between atoms: C_7  and  O_9 
REMARK    3  A    between atoms: C_10  and  C_11 
REMARK    4  A    between atoms: C_12  and  C_13 
REMARK    5  A    between atoms: C_16  and  C_18 
REMARK    6  A    between atoms: C_31  and  C_32 
ROOT
HETATM    1  O   LIG     1     -39.907 -31.019 -15.171  1.00  0.00     0.000 OA
HETATM    2  C   LIG     1     -40.601 -29.961 -14.287  1.00  0.00     0.038 A 
HETATM    3  O   LIG     1     -41.847 -28.917 -14.736  1.00  0.00     0.000 OA
HETATM    4  C   LIG     1     -42.588 -28.416 -15.707  1.00  0.00     0.001 A 
HETATM    5  C   LIG     1     -43.781 -27.276 -15.771  1.00  0.00     0.007 A 
HETATM    6  C   LIG     1     -44.462 -26.943 -16.979  1.00  0.00     0.100 A 
HETATM    7  C   LIG     1     -44.031 -27.764 -18.256  1.00  0.00     0.066 A 
HETATM    8  C   LIG     1     -42.857 -28.923 -18.255  1.00  0.00     0.197 A 
HETATM    9  O   LIG     1     -42.221 -29.599 -18.798  1.00  0.00    -0.286 OA
HETATM   10  C   LIG     1     -42.162 -29.127 -16.839  1.00  0.00     0.037 A 
HETATM   11  C   LIG     1     -41.125 -30.196 -16.633  1.00  0.00     0.013 C 
HETATM   12  C   LIG     1     -40.633 -29.959 -14.939  1.00  0.00     0.175 A 
HETATM   13  O   LIG     1     -39.360 -31.148 -14.856  1.00  0.00    -0.219 OA
HETATM   14  O   LIG     1     -45.647 -25.884 -17.155  1.00  0.00    -0.306 OA
HETATM   15  C   LIG     1     -45.944 -25.264 -15.886  1.00  0.00     0.114 C 
HETATM   16  C   LIG     1     -45.262 -25.300 -14.507  1.00  0.00     0.135 C 
HETATM   17  O   LIG     1     -45.649 -24.592 -13.264  1.00  0.00    -0.192 OA
HETATM   18  C   LIG     1     -44.053 -26.490 -14.232  1.00  0.00     0.085 C 
ENDROOT
BRANCH   2  19
HETATM   19  C   LIG     1     -40.131 -29.840 -12.642  1.00  0.00     0.006 A 
HETATM   20  C   LIG     1     -39.549 -29.292 -11.950  1.00  0.00     0.010 A 
HETATM   21  C   LIG     1     -40.296 -30.365 -11.690  1.00  0.00     0.030 A 
BRANCH  20  22
HETATM   22  C   LIG     1     -39.106 -29.169 -10.377  1.00  0.00     0.087 A 
HETATM   23  C   LIG     1     -38.490 -28.812  -9.750  1.00  0.00     0.244 A 
HETATM   24  O   LIG     1     -38.417 -29.100  -8.164  1.00  0.00    -0.193 OA
HETATM   25  C   LIG     1     -38.118 -28.350 -10.768  1.00  0.00     0.149 A 
HETATM   26  O   LIG     1     -37.504 -27.984 -10.222  1.00  0.00    -0.331 OA
ENDBRANCH  20  22
ENDBRANCH   2  19
BRANCH   1  27
HETATM   27  C   LIG     1     -39.494 -31.789 -16.425  1.00  0.00     0.003 A 
HETATM   28  C   LIG     1     -38.369 -31.538 -16.683  1.00  0.00     0.020 A 
HETATM   29  C   LIG     1     -37.435 -31.942 -17.939  1.00  0.00     0.115 A 
HETATM   30  C   LIG     1     -38.192 -33.015 -18.925  1.00  0.00     0.108 A 
HETATM   31  O   LIG     1     -36.038 -31.352 -18.185  1.00  0.00    -0.194 OA
HETATM   32  C   LIG     1     -39.669 -33.494 -18.625  1.00  0.00     0.115 A 
HETATM   33  O   LIG     1     -40.517 -34.549 -19.477  1.00  0.00    -0.194 OA
HETATM   34  C   LIG     1     -40.267 -32.837 -17.388  1.00  0.00     0.023 A 
ENDBRANCH   1  27
BRANCH  15  35
HETATM   35  C   LIG     1     -47.182 -24.029 -16.062  1.00  0.00    -0.013 A 
HETATM   36  C   LIG     1     -48.630 -24.344 -15.466  1.00  0.00     0.031 A 
HETATM   37  C   LIG     1     -49.839 -23.228 -15.544  1.00  0.00     0.060 A 
HETATM   38  C   LIG     1     -49.566 -21.824 -16.217  1.00  0.00     0.130 A 
HETATM   39  O   LIG     1     -50.720 -20.877 -16.303  1.00  0.00    -0.193 OA
HETATM   40  C   LIG     1     -48.086 -21.466 -16.787  1.00  0.00     0.134 A 
HETATM   41  O   LIG     1     -47.775 -20.034 -17.475  1.00  0.00    -0.193 OA
HETATM   42  C   LIG     1     -46.914 -22.583 -16.677  1.00  0.00     0.080 A 
ENDBRANCH  15  35
TORSDOF 6
ENDMDL
MODEL 8
REMARK VINA RESULT:      -8.1      2.069      2.520
REMARK  6 active torsions:
REMARK  status: ('A' for Active; 'I' for Inactive)
REMARK    1  A    between atoms: C_6  and  C_27 
REMARK    2  A    between atoms: C_7  and  O_9 
REMARK    3  A    between atoms: C_10  and  C_11 
REMARK    4  A    between atoms: C_12  and  C_13 
REMARK    5  A    between atoms: C_16  and  C_18 
REMARK    6  A    between atoms: C_31  and  C_32 
ROOT
HETATM    1  O   LIG     1     -39.042 -31.894 -17.586  1.00  0.00     0.000 OA
HETATM    2  C   LIG     1     -40.322 -31.073 -17.319  1.00  0.00     0.038 A 
HETATM    3  O   LIG     1     -41.652 -30.900 -18.340  1.00  0.00     0.000 OA
HETATM    4  C   LIG     1     -42.174 -31.099 -19.536  1.00  0.00     0.001 A 
HETATM    5  C   LIG     1     -43.617 -30.711 -20.240  1.00  0.00     0.007 A 
HETATM    6  C   LIG     1     -43.949 -31.089 -21.574  1.00  0.00     0.100 A 
HETATM    7  C   LIG     1     -42.860 -31.944 -22.333  1.00  0.00     0.066 A 
HETATM    8  C   LIG     1     -41.407 -32.375 -21.682  1.00  0.00     0.197 A 
HETATM    9  O   LIG     1     -40.428 -32.804 -21.802  1.00  0.00    -0.286 OA
HETATM   10  C   LIG     1     -41.177 -31.822 -20.209  1.00  0.00     0.037 A 
HETATM   11  C   LIG     1     -39.942 -32.181 -19.431  1.00  0.00     0.013 C 
HETATM   12  C   LIG     1     -40.142 -31.273 -17.914  1.00  0.00     0.175 A 
HETATM   13  O   LIG     1     -38.616 -31.659 -17.162  1.00  0.00    -0.219 OA
HETATM   14  O   LIG     1     -45.319 -30.798 -22.345  1.00  0.00    -0.306 OA
HETATM   15  C   LIG     1     -46.214 -30.053 -21.492  1.00  0.00     0.114 C 
HETATM   16  C   LIG     1     -46.045 -29.375 -20.120  1.00  0.00     0.135 C 
HETATM   17  O   LIG     1     -47.042 -28.604 -19.341  1.00  0.00    -0.192 OA
HETATM   18  C   LIG     1     -44.637 -29.737 -19.204  1.00  0.00     0.085 C 
ENDROOT
BRANCH   2  19
HETATM   19  C   LIG     1     -40.482 -30.285 -15.804  1.00  0.00     0.006 A 
HETATM   20  C   LIG     1     -40.388 -29.362 -15.298  1.00  0.00     0.010 A 
HETATM   21  C   LIG     1     -40.747 -30.529 -14.764  1.00  0.00     0.030 A 
BRANCH  20  22
HETATM   22  C   LIG     1     -40.550 -28.605 -13.854  1.00  0.00     0.087 A 
HETATM   23  C   LIG     1     -40.437 -27.804 -13.360  1.00  0.00     0.244 A 
HETATM   24  O   LIG     1     -40.668 -27.579 -11.778  1.00  0.00    -0.193 OA
HETATM   25  C   LIG     1     -40.109 -27.484 -14.445  1.00  0.00     0.149 A 
HETATM   26  O   LIG     1     -39.979 -26.697 -14.029  1.00  0.00    -0.331 OA
ENDBRANCH  20  22
ENDBRANCH   2  19
BRANCH   1  27
HETATM   27  C   LIG     1     -37.995 -32.707 -18.347  1.00  0.00     0.003 A 
HETATM   28  C   LIG     1     -36.943 -32.178 -18.247  1.00  0.00     0.020 A 
HETATM   29  C   LIG     1     -35.510 -32.493 -18.927  1.00  0.00     0.115 A 
HETATM   30  C   LIG     1     -35.549 -33.895 -19.781  1.00  0.00     0.108 A 
HETATM   31  O   LIG     1     -34.293 -31.563 -18.812  1.00  0.00    -0.194 OA
HETATM   32  C   LIG     1     -36.882 -34.735 -19.905  1.00  0.00     0.115 A 
HETATM   33  O   LIG     1     -37.062 -36.125 -20.677  1.00  0.00    -0.194 OA
HETATM   34  C   LIG     1     -38.062 -34.087 -19.194  1.00  0.00     0.023 A 
ENDBRANCH   1  27
BRANCH  15  35
HETATM   35  C   LIG     1     -47.695 -29.638 -22.341  1.00  0.00    -0.013 A 
HETATM   36  C   LIG     1     -47.563 -29.107 -23.842  1.00  0.00     0.031 A 
HETATM   37  C   LIG     1     -48.899 -28.736 -24.730  1.00  0.00     0.060 A 
HETATM   38  C   LIG     1     -50.335 -28.908 -24.092  1.00  0.00     0.130 A 
HETATM   39  O   LIG     1     -51.503 -28.505 -24.934  1.00  0.00    -0.193 OA
HETATM   40  C   LIG     1     -50.493 -29.492 -22.583  1.00  0.00     0.134 A 
HETATM   41  O   LIG     1     -51.951 -29.686 -21.906  1.00  0.00    -0.193 OA
HETATM   42  C   LIG     1     -49.156 -29.863 -21.744  1.00  0.00     0.080 A 
ENDBRANCH  15  35
TORSDOF 6
ENDMDL
MODEL 9
REMARK VINA RESULT:      -8.1      2.518      9.689
REMARK  6 active torsions:
REMARK  status: ('A' for Active; 'I' for Inactive)
REMARK    1  A    between atoms: C_6  and  C_27 
REMARK    2  A    between atoms: C_7  and  O_9 
REMARK    3  A    between atoms: C_10  and  C_11 
REMARK    4  A    between atoms: C_12  and  C_13 
REMARK    5  A    between atoms: C_16  and  C_18 
REMARK    6  A    between atoms: C_31  and  C_32 
ROOT
HETATM    1  O   LIG     1     -42.980 -31.136 -22.065  1.00  0.00     0.000 OA
HETATM    2  C   LIG     1     -43.504 -30.509 -20.755  1.00  0.00     0.038 A 
HETATM    3  O   LIG     1     -42.723 -30.472 -19.260  1.00  0.00     0.000 OA
HETATM    4  C   LIG     1     -41.718 -30.894 -18.516  1.00  0.00     0.001 A 
HETATM    5  C   LIG     1     -41.276 -30.658 -16.942  1.00  0.00     0.007 A 
HETATM    6  C   LIG     1     -40.087 -31.217 -16.386  1.00  0.00     0.100 A 
HETATM    7  C   LIG     1     -39.190 -32.050 -17.383  1.00  0.00     0.066 A 
HETATM    8  C   LIG     1     -39.570 -32.310 -18.967  1.00  0.00     0.197 A 
HETATM    9  O   LIG     1     -39.372 -32.812 -19.897  1.00  0.00    -0.286 OA
HETATM   10  C   LIG     1     -40.956 -31.666 -19.406  1.00  0.00     0.037 A 
HETATM   11  C   LIG     1     -41.425 -31.736 -20.833  1.00  0.00     0.013 C 
HETATM   12  C   LIG     1     -43.018 -30.945 -20.774  1.00  0.00     0.175 A 
HETATM   13  O   LIG     1     -43.509 -31.198 -22.428  1.00  0.00    -0.219 OA
HETATM   14  O   LIG     1     -39.544 -31.033 -14.893  1.00  0.00    -0.306 OA
HETATM   15  C   LIG     1     -40.456 -30.208 -14.137  1.00  0.00     0.114 C 
HETATM   16  C   LIG     1     -41.860 -29.646 -14.427  1.00  0.00     0.135 C 
HETATM   17  O   LIG     1     -42.725 -28.821 -13.551  1.00  0.00    -0.192 OA
HETATM   18  C   LIG     1     -42.448 -29.726 -16.039  1.00  0.00     0.085 C 
ENDROOT
BRANCH   2  19
HETATM   19  C   LIG     1     -45.013 -29.695 -20.788  1.00  0.00     0.006 A 
HETATM   20  C   LIG     1     -45.500 -28.792 -21.044  1.00  0.00     0.010 A 
HETATM   21  C   LIG     1     -46.061 -29.876 -20.506  1.00  0.00     0.030 A 
BRANCH  20  22
HETATM   22  C   LIG     1     -46.943 -28.017 -21.086  1.00  0.00     0.087 A 
HETATM   23  C   LIG     1     -47.411 -27.219 -21.298  1.00  0.00     0.244 A 
HETATM   24  O   LIG     1     -48.966 -26.886 -21.027  1.00  0.00    -0.193 OA
HETATM   25  C   LIG     1     -46.311 -26.972 -21.641  1.00  0.00     0.149 A 
HETATM   26  O   LIG     1     -46.700 -26.191 -21.862  1.00  0.00    -0.331 OA
ENDBRANCH  20  22
ENDBRANCH   2  19
BRANCH   1  27
HETATM   27  C   LIG     1     -42.105 -31.961 -23.007  1.00  0.00     0.003 A 
HETATM   28  C   LIG     1     -41.624 -31.249 -23.816  1.00  0.00     0.020 A 
HETATM   29  C   LIG     1     -40.726 -31.555 -25.126  1.00  0.00     0.115 A 
HETATM   30  C   LIG     1     -40.319 -33.144 -25.212  1.00  0.00     0.108 A 
HETATM   31  O   LIG     1     -40.350 -30.491 -26.167  1.00  0.00    -0.194 OA
HETATM   32  C   LIG     1     -40.832 -34.175 -24.129  1.00  0.00     0.115 A 
HETATM   33  O   LIG     1     -40.496 -35.738 -24.070  1.00  0.00    -0.194 OA
HETATM   34  C   LIG     1     -41.728 -33.536 -23.076  1.00  0.00     0.023 A 
ENDBRANCH   1  27
BRANCH  15  35
HETATM   35  C   LIG     1     -39.935 -30.060 -12.466  1.00  0.00    -0.013 A 
HETATM   36  C   LIG     1     -39.503 -28.610 -11.952  1.00  0.00     0.031 A 
HETATM   37  C   LIG     1     -39.044 -28.368 -10.389  1.00  0.00     0.060 A 
HETATM   38  C   LIG     1     -39.030 -29.584  -9.379  1.00  0.00     0.130 A 
HETATM   39  O   LIG     1     -38.553 -29.306  -7.990  1.00  0.00    -0.193 OA
HETATM   40  C   LIG     1     -39.511 -31.058  -9.870  1.00  0.00     0.134 A 
HETATM   41  O   LIG     1     -39.514 -32.320  -8.857  1.00  0.00    -0.193 OA
HETATM   42  C   LIG     1     -39.974 -31.256 -11.412  1.00  0.00     0.080 A 
ENDBRANCH  15  35
TORSDOF 6
ENDMDL
MODEL 10
REMARK VINA RESULT:      -7.9      2.003      2.829
REMARK  6 active torsions:
REMARK  status: ('A' for Active; 'I' for Inactive)
REMARK    1  A    between atoms: C_6  and  C_27 
REMARK    2  A    between atoms: C_7  and  O_9 
REMARK    3  A    between atoms: C_10  and  C_11 
REMARK    4  A    between atoms: C_12  and  C_13 
REMARK    5  A    between atoms: C_16  and  C_18 
REMARK    6  A    between atoms: C_31  and  C_32 
ROOT
HETATM    1  O   LIG     1     -38.449 -31.725 -17.164  1.00  0.00     0.000 OA
HETATM    2  C   LIG     1     -39.849 -31.137 -16.887  1.00  0.00     0.038 A 
HETATM    3  O   LIG     1     -41.168 -31.111 -17.937  1.00  0.00     0.000 OA
HETATM    4  C   LIG     1     -41.626 -31.313 -19.158  1.00  0.00     0.001 A 
HETATM    5  C   LIG     1     -43.098 -31.114 -19.881  1.00  0.00     0.007 A 
HETATM    6  C   LIG     1     -43.337 -31.455 -21.246  1.00  0.00     0.100 A 
HETATM    7  C   LIG     1     -42.111 -32.076 -22.021  1.00  0.00     0.066 A 
HETATM    8  C   LIG     1     -40.621 -32.312 -21.352  1.00  0.00     0.197 A 
HETATM    9  O   LIG     1     -39.584 -32.573 -21.468  1.00  0.00    -0.286 OA
HETATM   10  C   LIG     1     -40.513 -31.826 -19.842  1.00  0.00     0.037 A 
HETATM   11  C   LIG     1     -39.253 -32.034 -19.050  1.00  0.00     0.013 C 
HETATM   12  C   LIG     1     -39.627 -31.267 -17.488  1.00  0.00     0.175 A 
HETATM   13  O   LIG     1     -38.075 -31.455 -16.713  1.00  0.00    -0.219 OA
HETATM   14  O   LIG     1     -44.720 -31.335 -22.039  1.00  0.00    -0.306 OA
HETATM   15  C   LIG     1     -45.740 -30.797 -21.171  1.00  0.00     0.114 C 
HETATM   16  C   LIG     1     -45.711 -30.190 -19.756  1.00  0.00     0.135 C 
HETATM   17  O   LIG     1     -46.834 -29.638 -18.964  1.00  0.00    -0.192 OA
HETATM   18  C   LIG     1     -44.282 -30.383 -18.821  1.00  0.00     0.085 C 
ENDROOT
BRANCH   2  19
HETATM   19  C   LIG     1     -40.164 -30.483 -15.334  1.00  0.00     0.006 A 
HETATM   20  C   LIG     1     -40.057 -30.639 -14.294  1.00  0.00     0.010 A 
HETATM   21  C   LIG     1     -40.647 -29.601 -14.886  1.00  0.00     0.030 A 
BRANCH  20  22
HETATM   22  C   LIG     1     -40.348 -30.011 -12.809  1.00  0.00     0.087 A 
HETATM   23  C   LIG     1     -40.156 -30.042 -11.881  1.00  0.00     0.244 A 
HETATM   24  O   LIG     1     -40.858 -29.198 -10.698  1.00  0.00    -0.193 OA
HETATM   25  C   LIG     1     -39.428 -30.857 -12.322  1.00  0.00     0.149 A 
HETATM   26  O   LIG     1     -39.205 -30.934 -11.454  1.00  0.00    -0.331 OA
ENDBRANCH  20  22
ENDBRANCH   2  19
BRANCH   1  27
HETATM   27  C   LIG     1     -37.270 -32.312 -17.940  1.00  0.00     0.003 A 
HETATM   28  C   LIG     1     -37.553 -33.394 -18.320  1.00  0.00     0.020 A 
HETATM   29  C   LIG     1     -36.687 -34.534 -19.071  1.00  0.00     0.115 A 
HETATM   30  C   LIG     1     -35.199 -33.976 -19.487  1.00  0.00     0.108 A 
HETATM   31  O   LIG     1     -37.193 -35.963 -19.315  1.00  0.00    -0.194 OA
HETATM   32  C   LIG     1     -34.746 -32.509 -19.110  1.00  0.00     0.115 A 
HETATM   33  O   LIG     1     -33.346 -31.825 -19.471  1.00  0.00    -0.194 OA
HETATM   34  C   LIG     1     -35.803 -31.742 -18.328  1.00  0.00     0.023 A 
ENDBRANCH   1  27
BRANCH  15  35
HETATM   35  C   LIG     1     -47.250 -30.568 -22.038  1.00  0.00    -0.013 A 
HETATM   36  C   LIG     1     -47.374 -29.284 -22.981  1.00  0.00     0.031 A 
HETATM   37  C   LIG     1     -48.735 -29.012 -23.867  1.00  0.00     0.060 A 
HETATM   38  C   LIG     1     -49.939 -30.035 -23.788  1.00  0.00     0.130 A 
HETATM   39  O   LIG     1     -51.164 -29.701 -24.577  1.00  0.00    -0.193 OA
HETATM   40  C   LIG     1     -49.814 -31.372 -22.872  1.00  0.00     0.134 A 
HETATM   41  O   LIG     1     -51.027 -32.440 -22.776  1.00  0.00    -0.193 OA
HETATM   42  C   LIG     1     -48.452 -31.617 -22.026  1.00  0.00     0.080 A 
ENDBRANCH  15  35
TORSDOF 6
ENDMDL
MODEL 11
REMARK VINA RESULT:      -7.9      2.675      6.299
REMARK  6 active torsions:
REMARK  status: ('A' for Active; 'I' for Inactive)
REMARK    1  A    between atoms: C_6  and  C_27 
REMARK    2  A    between atoms: C_7  and  O_9 
REMARK    3  A    between atoms: C_10  and  C_11 
REMARK    4  A    between atoms: C_12  and  C_13 
REMARK    5  A    between atoms: C_16  and  C_18 
REMARK    6  A    between atoms: C_31  and  C_32 
ROOT
HETATM    1  O   LIG     1     -40.000 -30.610 -15.405  1.00  0.00     0.000 OA
HETATM    2  C   LIG     1     -40.084 -31.051 -16.882  1.00  0.00     0.038 A 
HETATM    3  O   LIG     1     -41.396 -30.873 -17.926  1.00  0.00     0.000 OA
HETATM    4  C   LIG     1     -42.669 -30.557 -18.073  1.00  0.00     0.001 A 
HETATM    5  C   LIG     1     -43.711 -30.551 -19.355  1.00  0.00     0.007 A 
HETATM    6  C   LIG     1     -45.065 -30.114 -19.244  1.00  0.00     0.100 A 
HETATM    7  C   LIG     1     -45.502 -29.595 -17.819  1.00  0.00     0.066 A 
HETATM    8  C   LIG     1     -44.506 -29.564 -16.504  1.00  0.00     0.197 A 
HETATM    9  O   LIG     1     -44.371 -29.416 -15.447  1.00  0.00    -0.286 OA
HETATM   10  C   LIG     1     -43.051 -30.138 -16.789  1.00  0.00     0.037 A 
HETATM   11  C   LIG     1     -41.988 -30.115 -15.727  1.00  0.00     0.013 C 
HETATM   12  C   LIG     1     -40.609 -30.916 -16.519  1.00  0.00     0.175 A 
HETATM   13  O   LIG     1     -39.501 -30.945 -15.172  1.00  0.00    -0.219 OA
HETATM   14  O   LIG     1     -46.149 -30.036 -20.416  1.00  0.00    -0.306 OA
HETATM   15  C   LIG     1     -45.570 -30.500 -21.654  1.00  0.00     0.114 C 
HETATM   16  C   LIG     1     -44.234 -31.180 -22.006  1.00  0.00     0.135 C 
HETATM   17  O   LIG     1     -43.752 -31.643 -23.328  1.00  0.00    -0.192 OA
HETATM   18  C   LIG     1     -42.996 -31.199 -20.814  1.00  0.00     0.085 C 
ENDROOT
BRANCH   2  19
HETATM   19  C   LIG     1     -38.692 -31.747 -17.604  1.00  0.00     0.006 A 
HETATM   20  C   LIG     1     -38.249 -32.650 -17.927  1.00  0.00     0.010 A 
HETATM   21  C   LIG     1     -37.709 -31.433 -17.984  1.00  0.00     0.030 A 
BRANCH  20  22
HETATM   22  C   LIG     1     -36.924 -33.315 -18.625  1.00  0.00     0.087 A 
HETATM   23  C   LIG     1     -36.481 -34.110 -18.894  1.00  0.00     0.244 A 
HETATM   24  O   LIG     1     -34.994 -34.253 -19.503  1.00  0.00    -0.193 OA
HETATM   25  C   LIG     1     -37.508 -34.514 -18.481  1.00  0.00     0.149 A 
HETATM   26  O   LIG     1     -37.138 -35.301 -18.714  1.00  0.00    -0.331 OA
ENDBRANCH  20  22
ENDBRANCH   2  19
BRANCH   1  27
HETATM   27  C   LIG     1     -40.451 -30.120 -14.030  1.00  0.00     0.003 A 
HETATM   28  C   LIG     1     -40.318 -28.948 -13.971  1.00  0.00     0.020 A 
HETATM   29  C   LIG     1     -40.503 -27.902 -12.751  1.00  0.00     0.115 A 
HETATM   30  C   LIG     1     -41.132 -28.637 -11.424  1.00  0.00     0.108 A 
HETATM   31  O   LIG     1     -40.094 -26.424 -12.831  1.00  0.00    -0.194 OA
HETATM   32  C   LIG     1     -41.438 -30.188 -11.421  1.00  0.00     0.115 A 
HETATM   33  O   LIG     1     -42.073 -31.029 -10.218  1.00  0.00    -0.194 OA
HETATM   34  C   LIG     1     -41.061 -30.871 -12.729  1.00  0.00     0.023 A 
ENDBRANCH   1  27
BRANCH  15  35
HETATM   35  C   LIG     1     -46.763 -30.512 -22.944  1.00  0.00    -0.013 A 
HETATM   36  C   LIG     1     -47.384 -29.109 -23.389  1.00  0.00     0.031 A 
HETATM   37  C   LIG     1     -48.475 -29.018 -24.619  1.00  0.00     0.060 A 
HETATM   38  C   LIG     1     -48.916 -30.335 -25.374  1.00  0.00     0.130 A 
HETATM   39  O   LIG     1     -49.948 -30.189 -26.445  1.00  0.00    -0.193 OA
HETATM   40  C   LIG     1     -48.260 -31.766 -24.968  1.00  0.00     0.134 A 
HETATM   41  O   LIG     1     -48.687 -33.131 -25.727  1.00  0.00    -0.193 OA
HETATM   42  C   LIG     1     -47.175 -31.816 -23.763  1.00  0.00     0.080 A 
ENDBRANCH  15  35
TORSDOF 6
ENDMDL
MODEL 12
REMARK VINA RESULT:      -7.8      2.929      7.024
REMARK  6 active torsions:
REMARK  status: ('A' for Active; 'I' for Inactive)
REMARK    1  A    between atoms: C_6  and  C_27 
REMARK    2  A    between atoms: C_7  and  O_9 
REMARK    3  A    between atoms: C_10  and  C_11 
REMARK    4  A    between atoms: C_12  and  C_13 
REMARK    5  A    between atoms: C_16  and  C_18 
REMARK    6  A    between atoms: C_31  and  C_32 
ROOT
HETATM    1  O   LIG     1     -39.404 -30.650 -13.128  1.00  0.00     0.000 OA
HETATM    2  C   LIG     1     -40.159 -30.394 -14.451  1.00  0.00     0.038 A 
HETATM    3  O   LIG     1     -41.385 -29.268 -14.722  1.00  0.00     0.000 OA
HETATM    4  C   LIG     1     -42.233 -28.397 -14.209  1.00  0.00     0.001 A 
HETATM    5  C   LIG     1     -43.418 -27.436 -14.843  1.00  0.00     0.007 A 
HETATM    6  C   LIG     1     -44.183 -26.533 -14.047  1.00  0.00     0.100 A 
HETATM    7  C   LIG     1     -43.801 -26.477 -12.516  1.00  0.00     0.066 A 
HETATM    8  C   LIG     1     -42.622 -27.400 -11.826  1.00  0.00     0.197 A 
HETATM    9  O   LIG     1     -42.117 -27.752 -10.944  1.00  0.00    -0.286 OA
HETATM   10  C   LIG     1     -41.908 -28.391 -12.844  1.00  0.00     0.037 A 
HETATM   11  C   LIG     1     -40.756 -29.253 -12.407  1.00  0.00     0.013 C 
HETATM   12  C   LIG     1     -40.379 -30.196 -13.868  1.00  0.00     0.175 A 
HETATM   13  O   LIG     1     -39.137 -31.230 -13.213  1.00  0.00    -0.219 OA
HETATM   14  O   LIG     1     -45.327 -25.537 -14.553  1.00  0.00    -0.306 OA
HETATM   15  C   LIG     1     -45.512 -25.684 -15.977  1.00  0.00     0.114 C 
HETATM   16  C   LIG     1     -44.969 -26.682 -17.015  1.00  0.00     0.135 C 
HETATM   17  O   LIG     1     -45.254 -26.752 -18.467  1.00  0.00    -0.192 OA
HETATM   18  C   LIG     1     -43.667 -27.705 -16.553  1.00  0.00     0.085 C 
ENDROOT
BRANCH   2  19
HETATM   19  C   LIG     1     -39.693 -31.285 -15.840  1.00  0.00     0.006 A 
HETATM   20  C   LIG     1     -38.870 -31.628 -16.408  1.00  0.00     0.010 A 
HETATM   21  C   LIG     1     -40.161 -31.825 -16.676  1.00  0.00     0.030 A 
BRANCH  20  22
HETATM   22  C   LIG     1     -38.422 -32.487 -17.729  1.00  0.00     0.087 A 
HETATM   23  C   LIG     1     -37.707 -32.816 -18.259  1.00  0.00     0.244 A 
HETATM   24  O   LIG     1     -37.801 -33.601 -19.666  1.00  0.00    -0.193 OA
HETATM   25  C   LIG     1     -37.146 -32.288 -17.368  1.00  0.00     0.149 A 
HETATM   26  O   LIG     1     -36.428 -32.572 -17.830  1.00  0.00    -0.331 OA
ENDBRANCH  20  22
ENDBRANCH   2  19
BRANCH   1  27
HETATM   27  C   LIG     1     -39.064 -30.592 -11.640  1.00  0.00     0.003 A 
HETATM   28  C   LIG     1     -39.553 -31.517 -11.092  1.00  0.00     0.020 A 
HETATM   29  C   LIG     1     -39.646 -31.919  -9.529  1.00  0.00     0.115 A 
HETATM   30  C   LIG     1     -38.758 -30.900  -8.597  1.00  0.00     0.108 A 
HETATM   31  O   LIG     1     -40.499 -33.082  -8.999  1.00  0.00    -0.194 OA
HETATM   32  C   LIG     1     -37.984 -29.679  -9.236  1.00  0.00     0.115 A 
HETATM   33  O   LIG     1     -37.062 -28.626  -8.460  1.00  0.00    -0.194 OA
HETATM   34  C   LIG     1     -38.190 -29.566 -10.740  1.00  0.00     0.023 A 
ENDBRANCH   1  27
BRANCH  15  35
HETATM   35  C   LIG     1     -46.826 -24.668 -16.550  1.00  0.00    -0.013 A 
HETATM   36  C   LIG     1     -46.619 -23.085 -16.486  1.00  0.00     0.031 A 
HETATM   37  C   LIG     1     -47.778 -22.056 -17.043  1.00  0.00     0.060 A 
HETATM   38  C   LIG     1     -49.115 -22.639 -17.652  1.00  0.00     0.130 A 
HETATM   39  O   LIG     1     -50.147 -21.650 -18.091  1.00  0.00    -0.193 OA
HETATM   40  C   LIG     1     -49.325 -24.246 -17.770  1.00  0.00     0.134 A 
HETATM   41  O   LIG     1     -50.681 -24.872 -18.396  1.00  0.00    -0.193 OA
HETATM   42  C   LIG     1     -48.156 -25.230 -17.228  1.00  0.00     0.080 A 
ENDBRANCH  15  35
TORSDOF 6
ENDMDL
MODEL 13
REMARK VINA RESULT:      -7.6      5.106      8.450
REMARK  6 active torsions:
REMARK  status: ('A' for Active; 'I' for Inactive)
REMARK    1  A    between atoms: C_6  and  C_27 
REMARK    2  A    between atoms: C_7  and  O_9 
REMARK    3  A    between atoms: C_10  and  C_11 
REMARK    4  A    between atoms: C_12  and  C_13 
REMARK    5  A    between atoms: C_16  and  C_18 
REMARK    6  A    between atoms: C_31  and  C_32 
ROOT
HETATM    1  O   LIG     1     -39.187 -34.980 -21.290  1.00  0.00     0.000 OA
HETATM    2  C   LIG     1     -40.478 -34.773 -20.470  1.00  0.00     0.038 A 
HETATM    3  O   LIG     1     -40.686 -33.762 -19.136  1.00  0.00     0.000 OA
HETATM    4  C   LIG     1     -40.127 -32.984 -18.228  1.00  0.00     0.001 A 
HETATM    5  C   LIG     1     -40.702 -32.127 -16.938  1.00  0.00     0.007 A 
HETATM    6  C   LIG     1     -39.863 -31.314 -16.119  1.00  0.00     0.100 A 
HETATM    7  C   LIG     1     -38.345 -31.250 -16.546  1.00  0.00     0.066 A 
HETATM    8  C   LIG     1     -37.713 -32.071 -17.830  1.00  0.00     0.197 A 
HETATM    9  O   LIG     1     -36.855 -32.389 -18.395  1.00  0.00    -0.286 OA
HETATM   10  C   LIG     1     -38.774 -32.972 -18.598  1.00  0.00     0.037 A 
HETATM   11  C   LIG     1     -38.392 -33.729 -19.840  1.00  0.00     0.013 C 
HETATM   12  C   LIG     1     -39.885 -34.607 -20.252  1.00  0.00     0.175 A 
HETATM   13  O   LIG     1     -39.292 -35.531 -21.607  1.00  0.00    -0.219 OA
HETATM   14  O   LIG     1     -40.311 -30.422 -14.871  1.00  0.00    -0.306 OA
HETATM   15  C   LIG     1     -41.731 -30.560 -14.651  1.00  0.00     0.114 C 
HETATM   16  C   LIG     1     -42.807 -31.485 -15.249  1.00  0.00     0.135 C 
HETATM   17  O   LIG     1     -44.250 -31.555 -14.923  1.00  0.00    -0.192 OA
HETATM   18  C   LIG     1     -42.409 -32.388 -16.656  1.00  0.00     0.085 C 
ENDROOT
BRANCH   2  19
HETATM   19  C   LIG     1     -41.900 -35.591 -20.969  1.00  0.00     0.006 A 
HETATM   20  C   LIG     1     -42.437 -36.500 -20.912  1.00  0.00     0.010 A 
HETATM   21  C   LIG     1     -42.789 -35.408 -21.590  1.00  0.00     0.030 A 
BRANCH  20  22
HETATM   22  C   LIG     1     -43.800 -37.280 -21.380  1.00  0.00     0.087 A 
HETATM   23  C   LIG     1     -44.299 -38.087 -21.366  1.00  0.00     0.244 A 
HETATM   24  O   LIG     1     -45.671 -38.412 -22.149  1.00  0.00    -0.193 OA
HETATM   25  C   LIG     1     -43.371 -38.346 -20.688  1.00  0.00     0.149 A 
HETATM   26  O   LIG     1     -43.797 -39.136 -20.639  1.00  0.00    -0.331 OA
ENDBRANCH  20  22
ENDBRANCH   2  19
BRANCH   1  27
HETATM   27  C   LIG     1     -37.709 -34.917 -21.674  1.00  0.00     0.003 A 
HETATM   28  C   LIG     1     -37.599 -35.113 -22.833  1.00  0.00     0.020 A 
HETATM   29  C   LIG     1     -36.299 -35.292 -23.778  1.00  0.00     0.115 A 
HETATM   30  C   LIG     1     -34.913 -34.990 -22.950  1.00  0.00     0.108 A 
HETATM   31  O   LIG     1     -36.370 -35.734 -25.247  1.00  0.00    -0.194 OA
HETATM   32  C   LIG     1     -34.947 -34.625 -21.412  1.00  0.00     0.115 A 
HETATM   33  O   LIG     1     -33.688 -34.280 -20.489  1.00  0.00    -0.194 OA
HETATM   34  C   LIG     1     -36.355 -34.625 -20.832  1.00  0.00     0.023 A 
ENDBRANCH   1  27
BRANCH  15  35
HETATM   35  C   LIG     1     -42.240 -29.662 -13.230  1.00  0.00    -0.013 A 
HETATM   36  C   LIG     1     -42.168 -30.408 -11.819  1.00  0.00     0.031 A 
HETATM   37  C   LIG     1     -42.582 -29.631 -10.427  1.00  0.00     0.060 A 
HETATM   38  C   LIG     1     -43.056 -28.124 -10.484  1.00  0.00     0.130 A 
HETATM   39  O   LIG     1     -43.467 -27.494  -9.192  1.00  0.00    -0.193 OA
HETATM   40  C   LIG     1     -43.091 -27.332 -11.903  1.00  0.00     0.134 A 
HETATM   41  O   LIG     1     -43.566 -25.787 -11.991  1.00  0.00    -0.193 OA
HETATM   42  C   LIG     1     -42.660 -28.124 -13.252  1.00  0.00     0.080 A 
ENDBRANCH  15  35
TORSDOF 6
ENDMDL
MODEL 14
REMARK VINA RESULT:      -7.5      3.196      9.347
REMARK  6 active torsions:
REMARK  status: ('A' for Active; 'I' for Inactive)
REMARK    1  A    between atoms: C_6  and  C_27 
REMARK    2  A    between atoms: C_7  and  O_9 
REMARK    3  A    between atoms: C_10  and  C_11 
REMARK    4  A    between atoms: C_12  and  C_13 
REMARK    5  A    between atoms: C_16  and  C_18 
REMARK    6  A    between atoms: C_31  and  C_32 
ROOT
HETATM    1  O   LIG     1     -42.076 -28.726 -15.672  1.00  0.00     0.000 OA
HETATM    2  C   LIG     1     -42.481 -28.998 -17.137  1.00  0.00     0.038 A 
HETATM    3  O   LIG     1     -41.814 -30.140 -18.183  1.00  0.00     0.000 OA
HETATM    4  C   LIG     1     -40.855 -31.018 -18.411  1.00  0.00     0.001 A 
HETATM    5  C   LIG     1     -40.473 -31.997 -19.686  1.00  0.00     0.007 A 
HETATM    6  C   LIG     1     -39.373 -32.904 -19.656  1.00  0.00     0.100 A 
HETATM    7  C   LIG     1     -38.558 -32.948 -18.304  1.00  0.00     0.066 A 
HETATM    8  C   LIG     1     -38.897 -32.007 -16.993  1.00  0.00     0.197 A 
HETATM    9  O   LIG     1     -38.627 -31.644 -16.017  1.00  0.00    -0.286 OA
HETATM   10  C   LIG     1     -40.118 -31.013 -17.217  1.00  0.00     0.037 A 
HETATM   11  C   LIG     1     -40.617 -30.135 -16.103  1.00  0.00     0.013 C 
HETATM   12  C   LIG     1     -41.914 -29.195 -16.880  1.00  0.00     0.175 A 
HETATM   13  O   LIG     1     -42.322 -28.143 -15.550  1.00  0.00    -0.219 OA
HETATM   14  O   LIG     1     -38.928 -33.916 -20.811  1.00  0.00    -0.306 OA
HETATM   15  C   LIG     1     -39.806 -33.779 -21.949  1.00  0.00     0.114 C 
HETATM   16  C   LIG     1     -40.920 -32.780 -22.309  1.00  0.00     0.135 C 
HETATM   17  O   LIG     1     -41.747 -32.721 -23.537  1.00  0.00    -0.192 OA
HETATM   18  C   LIG     1     -41.507 -31.740 -21.073  1.00  0.00     0.085 C 
ENDROOT
BRANCH   2  19
HETATM   19  C   LIG     1     -43.790 -28.109 -17.798  1.00  0.00     0.006 A 
HETATM   20  C   LIG     1     -44.761 -28.181 -18.209  1.00  0.00     0.010 A 
HETATM   21  C   LIG     1     -44.048 -27.067 -18.042  1.00  0.00     0.030 A 
BRANCH  20  22
HETATM   22  C   LIG     1     -46.017 -27.332 -18.831  1.00  0.00     0.087 A 
HETATM   23  C   LIG     1     -46.871 -27.362 -19.242  1.00  0.00     0.244 A 
HETATM   24  O   LIG     1     -47.733 -26.127 -19.820  1.00  0.00    -0.193 OA
HETATM   25  C   LIG     1     -46.644 -28.500 -19.037  1.00  0.00     0.149 A 
HETATM   26  O   LIG     1     -47.451 -28.592 -19.423  1.00  0.00    -0.331 OA
ENDBRANCH  20  22
ENDBRANCH   2  19
BRANCH   1  27
HETATM   27  C   LIG     1     -41.261 -28.772 -14.380  1.00  0.00     0.003 A 
HETATM   28  C   LIG     1     -40.778 -27.712 -14.186  1.00  0.00     0.020 A 
HETATM   29  C   LIG     1     -39.731 -27.192 -13.069  1.00  0.00     0.115 A 
HETATM   30  C   LIG     1     -39.438 -28.350 -11.942  1.00  0.00     0.108 A 
HETATM   31  O   LIG     1     -39.072 -25.805 -13.101  1.00  0.00    -0.194 OA
HETATM   32  C   LIG     1     -40.105 -29.779 -12.050  1.00  0.00     0.115 A 
HETATM   33  O   LIG     1     -39.934 -30.989 -11.018  1.00  0.00    -0.194 OA
HETATM   34  C   LIG     1     -40.979 -29.935 -13.287  1.00  0.00     0.023 A 
ENDBRANCH   1  27
BRANCH  15  35
HETATM   35  C   LIG     1     -39.289 -34.813 -23.272  1.00  0.00    -0.013 A 
HETATM   36  C   LIG     1     -40.327 -35.905 -23.805  1.00  0.00     0.031 A 
HETATM   37  C   LIG     1     -39.947 -36.887 -25.071  1.00  0.00     0.060 A 
HETATM   38  C   LIG     1     -38.536 -36.751 -25.772  1.00  0.00     0.130 A 
HETATM   39  O   LIG     1     -38.235 -37.708 -26.880  1.00  0.00    -0.193 OA
HETATM   40  C   LIG     1     -37.485 -35.616 -25.275  1.00  0.00     0.134 A 
HETATM   41  O   LIG     1     -36.036 -35.448 -25.978  1.00  0.00    -0.193 OA
HETATM   42  C   LIG     1     -37.899 -34.653 -24.037  1.00  0.00     0.080 A 
ENDBRANCH  15  35
TORSDOF 6
ENDMDL
MODEL 15
REMARK VINA RESULT:      -7.5      4.306      7.304
REMARK  6 active torsions:
REMARK  status: ('A' for Active; 'I' for Inactive)
REMARK    1  A    between atoms: C_6  and  C_27 
REMARK    2  A    between atoms: C_7  and  O_9 
REMARK    3  A    between atoms: C_10  and  C_11 
REMARK    4  A    between atoms: C_12  and  C_13 
REMARK    5  A    between atoms: C_16  and  C_18 
REMARK    6  A    between atoms: C_31  and  C_32 
ROOT
HETATM    1  O   LIG     1     -39.548 -34.687 -20.851  1.00  0.00     0.000 OA
HETATM    2  C   LIG     1     -40.956 -34.378 -20.298  1.00  0.00     0.038 A 
HETATM    3  O   LIG     1     -41.404 -33.081 -19.319  1.00  0.00     0.000 OA
HETATM    4  C   LIG     1     -41.020 -32.057 -18.580  1.00  0.00     0.001 A 
HETATM    5  C   LIG     1     -41.818 -30.946 -17.652  1.00  0.00     0.007 A 
HETATM    6  C   LIG     1     -41.145 -29.890 -16.969  1.00  0.00     0.100 A 
HETATM    7  C   LIG     1     -39.583 -29.820 -17.187  1.00  0.00     0.066 A 
HETATM    8  C   LIG     1     -38.732 -30.889 -18.110  1.00  0.00     0.197 A 
HETATM    9  O   LIG     1     -37.786 -31.274 -18.449  1.00  0.00    -0.286 OA
HETATM   10  C   LIG     1     -39.628 -32.035 -18.752  1.00  0.00     0.037 A 
HETATM   11  C   LIG     1     -39.032 -33.051 -19.686  1.00  0.00     0.013 C 
HETATM   12  C   LIG     1     -40.410 -34.117 -20.053  1.00  0.00     0.175 A 
HETATM   13  O   LIG     1     -39.582 -35.308 -21.023  1.00  0.00    -0.219 OA
HETATM   14  O   LIG     1     -41.811 -28.746 -16.073  1.00  0.00    -0.306 OA
HETATM   15  C   LIG     1     -43.242 -28.933 -16.022  1.00  0.00     0.114 C 
HETATM   16  C   LIG     1     -44.178 -30.059 -16.496  1.00  0.00     0.135 C 
HETATM   17  O   LIG     1     -45.650 -30.156 -16.364  1.00  0.00    -0.192 OA
HETATM   18  C   LIG     1     -43.535 -31.257 -17.548  1.00  0.00     0.085 C 
ENDROOT
BRANCH   2  19
HETATM   19  C   LIG     1     -42.252 -35.404 -20.755  1.00  0.00     0.006 A 
HETATM   20  C   LIG     1     -42.635 -36.388 -20.697  1.00  0.00     0.010 A 
HETATM   21  C   LIG     1     -43.189 -35.354 -21.330  1.00  0.00     0.030 A 
BRANCH  20  22
HETATM   22  C   LIG     1     -43.878 -37.367 -21.123  1.00  0.00     0.087 A 
HETATM   23  C   LIG     1     -44.221 -38.251 -21.149  1.00  0.00     0.244 A 
HETATM   24  O   LIG     1     -45.587 -38.760 -21.840  1.00  0.00    -0.193 OA
HETATM   25  C   LIG     1     -43.197 -38.388 -20.582  1.00  0.00     0.149 A 
HETATM   26  O   LIG     1     -43.469 -39.246 -20.578  1.00  0.00    -0.331 OA
ENDBRANCH  20  22
ENDBRANCH   2  19
BRANCH   1  27
HETATM   27  C   LIG     1     -38.032 -34.610 -21.032  1.00  0.00     0.003 A 
HETATM   28  C   LIG     1     -37.767 -34.779 -22.170  1.00  0.00     0.020 A 
HETATM   29  C   LIG     1     -36.351 -34.932 -22.936  1.00  0.00     0.115 A 
HETATM   30  C   LIG     1     -35.091 -34.644 -21.923  1.00  0.00     0.108 A 
HETATM   31  O   LIG     1     -36.222 -35.339 -24.411  1.00  0.00    -0.194 OA
HETATM   32  C   LIG     1     -35.332 -34.316 -20.396  1.00  0.00     0.115 A 
HETATM   33  O   LIG     1     -34.210 -33.989 -19.304  1.00  0.00    -0.194 OA
HETATM   34  C   LIG     1     -36.805 -34.334 -20.010  1.00  0.00     0.023 A 
ENDBRANCH   1  27
BRANCH  15  35
HETATM   35  C   LIG     1     -43.996 -27.745 -14.970  1.00  0.00    -0.013 A 
HETATM   36  C   LIG     1     -44.187 -28.133 -13.432  1.00  0.00     0.031 A 
HETATM   37  C   LIG     1     -44.842 -27.066 -12.363  1.00  0.00     0.060 A 
HETATM   38  C   LIG     1     -45.289 -25.634 -12.862  1.00  0.00     0.130 A 
HETATM   39  O   LIG     1     -45.925 -24.732 -11.852  1.00  0.00    -0.193 OA
HETATM   40  C   LIG     1     -45.060 -25.201 -14.412  1.00  0.00     0.134 A 
HETATM   41  O   LIG     1     -45.501 -23.739 -14.950  1.00  0.00    -0.193 OA
HETATM   42  C   LIG     1     -44.395 -26.272 -15.433  1.00  0.00     0.080 A 
ENDBRANCH  15  35
TORSDOF 6
ENDMDL
MODEL 16
REMARK VINA RESULT:      -7.5      3.985      9.195
REMARK  6 active torsions:
REMARK  status: ('A' for Active; 'I' for Inactive)
REMARK    1  A    between atoms: C_6  and  C_27 
REMARK    2  A    between atoms: C_7  and  O_9 
REMARK    3  A    between atoms: C_10  and  C_11 
REMARK    4  A    between atoms: C_12  and  C_13 
REMARK    5  A    between atoms: C_16  and  C_18 
REMARK    6  A    between atoms: C_31  and  C_32 
ROOT
HETATM    1  O   LIG     1     -41.516 -33.786 -18.964  1.00  0.00     0.000 OA
HETATM    2  C   LIG     1     -40.507 -33.165 -17.975  1.00  0.00     0.038 A 
HETATM    3  O   LIG     1     -40.857 -32.311 -16.564  1.00  0.00     0.000 OA
HETATM    4  C   LIG     1     -41.771 -31.727 -15.811  1.00  0.00     0.001 A 
HETATM    5  C   LIG     1     -41.721 -30.875 -14.397  1.00  0.00     0.007 A 
HETATM    6  C   LIG     1     -42.895 -30.374 -13.760  1.00  0.00     0.100 A 
HETATM    7  C   LIG     1     -44.261 -30.719 -14.472  1.00  0.00     0.066 A 
HETATM    8  C   LIG     1     -44.378 -31.576 -15.876  1.00  0.00     0.197 A 
HETATM    9  O   LIG     1     -44.975 -31.941 -16.693  1.00  0.00    -0.286 OA
HETATM   10  C   LIG     1     -42.972 -32.009 -16.480  1.00  0.00     0.037 A 
HETATM   11  C   LIG     1     -42.889 -32.863 -17.715  1.00  0.00     0.013 C 
HETATM   12  C   LIG     1     -41.137 -32.995 -17.998  1.00  0.00     0.175 A 
HETATM   13  O   LIG     1     -41.169 -33.882 -19.499  1.00  0.00    -0.219 OA
HETATM   14  O   LIG     1     -42.971 -29.566 -12.382  1.00  0.00    -0.306 OA
HETATM   15  C   LIG     1     -41.644 -29.382 -11.846  1.00  0.00     0.114 C 
HETATM   16  C   LIG     1     -40.234 -29.649 -12.403  1.00  0.00     0.135 C 
HETATM   17  O   LIG     1     -38.923 -29.391 -11.762  1.00  0.00    -0.192 OA
HETATM   18  C   LIG     1     -40.091 -30.601 -13.826  1.00  0.00     0.085 C 
ENDROOT
BRANCH   2  19
HETATM   19  C   LIG     1     -38.833 -33.397 -18.268  1.00  0.00     0.006 A 
HETATM   20  C   LIG     1     -37.908 -32.907 -18.415  1.00  0.00     0.010 A 
HETATM   21  C   LIG     1     -38.124 -34.223 -18.428  1.00  0.00     0.030 A 
BRANCH  20  22
HETATM   22  C   LIG     1     -36.306 -33.127 -18.685  1.00  0.00     0.087 A 
HETATM   23  C   LIG     1     -35.448 -32.728 -18.743  1.00  0.00     0.244 A 
HETATM   24  O   LIG     1     -34.063 -33.426 -19.188  1.00  0.00    -0.193 OA
HETATM   25  C   LIG     1     -36.131 -31.823 -18.425  1.00  0.00     0.149 A 
HETATM   26  O   LIG     1     -35.345 -31.389 -18.466  1.00  0.00    -0.331 OA
ENDBRANCH  20  22
ENDBRANCH   2  19
BRANCH   1  27
HETATM   27  C   LIG     1     -42.850 -34.093 -19.646  1.00  0.00     0.003 A 
HETATM   28  C   LIG     1     -43.076 -35.248 -19.556  1.00  0.00     0.020 A 
HETATM   29  C   LIG     1     -44.251 -36.168 -20.180  1.00  0.00     0.115 A 
HETATM   30  C   LIG     1     -45.384 -35.255 -20.941  1.00  0.00     0.108 A 
HETATM   31  O   LIG     1     -44.263 -37.702 -20.098  1.00  0.00    -0.194 OA
HETATM   32  C   LIG     1     -45.230 -33.685 -21.041  1.00  0.00     0.115 A 
HETATM   33  O   LIG     1     -46.261 -32.670 -21.723  1.00  0.00    -0.194 OA
HETATM   34  C   LIG     1     -43.947 -33.170 -20.401  1.00  0.00     0.023 A 
ENDBRANCH   1  27
BRANCH  15  35
HETATM   35  C   LIG     1     -41.685 -28.419 -10.377  1.00  0.00    -0.013 A 
HETATM   36  C   LIG     1     -42.198 -26.911 -10.495  1.00  0.00     0.031 A 
HETATM   37  C   LIG     1     -42.314 -25.949  -9.164  1.00  0.00     0.060 A 
HETATM   38  C   LIG     1     -41.912 -26.522  -7.747  1.00  0.00     0.130 A 
HETATM   39  O   LIG     1     -41.990 -25.580  -6.588  1.00  0.00    -0.193 OA
HETATM   40  C   LIG     1     -41.432 -28.068  -7.598  1.00  0.00     0.134 A 
HETATM   41  O   LIG     1     -41.022 -28.685  -6.158  1.00  0.00    -0.193 OA
HETATM   42  C   LIG     1     -41.348 -28.992  -8.928  1.00  0.00     0.080 A 
ENDBRANCH  15  35
TORSDOF 6
ENDMDL
MODEL 17
REMARK VINA RESULT:      -7.5      3.216      9.769
REMARK  6 active torsions:
REMARK  status: ('A' for Active; 'I' for Inactive)
REMARK    1  A    between atoms: C_6  and  C_27 
REMARK    2  A    between atoms: C_7  and  O_9 
REMARK    3  A    between atoms: C_10  and  C_11 
REMARK    4  A    between atoms: C_12  and  C_13 
REMARK    5  A    between atoms: C_16  and  C_18 
REMARK    6  A    between atoms: C_31  and  C_32 
ROOT
HETATM    1  O   LIG     1     -41.539 -32.635 -18.752  1.00  0.00     0.000 OA
HETATM    2  C   LIG     1     -40.437 -32.336 -17.714  1.00  0.00     0.038 A 
HETATM    3  O   LIG     1     -40.644 -31.726 -16.156  1.00  0.00     0.000 OA
HETATM    4  C   LIG     1     -41.459 -31.190 -15.267  1.00  0.00     0.001 A 
HETATM    5  C   LIG     1     -41.269 -30.631 -13.724  1.00  0.00     0.007 A 
HETATM    6  C   LIG     1     -42.355 -30.122 -12.951  1.00  0.00     0.100 A 
HETATM    7  C   LIG     1     -43.770 -30.162 -13.650  1.00  0.00     0.066 A 
HETATM    8  C   LIG     1     -44.027 -30.720 -15.181  1.00  0.00     0.197 A 
HETATM    9  O   LIG     1     -44.685 -30.851 -16.022  1.00  0.00    -0.286 OA
HETATM   10  C   LIG     1     -42.701 -31.196 -15.919  1.00  0.00     0.037 A 
HETATM   11  C   LIG     1     -42.756 -31.806 -17.292  1.00  0.00     0.013 C 
HETATM   12  C   LIG     1     -41.041 -32.091 -17.676  1.00  0.00     0.175 A 
HETATM   13  O   LIG     1     -41.220 -32.670 -19.311  1.00  0.00    -0.219 OA
HETATM   14  O   LIG     1     -42.297 -29.585 -11.447  1.00  0.00    -0.306 OA
HETATM   15  C   LIG     1     -40.945 -29.664 -10.949  1.00  0.00     0.114 C 
HETATM   16  C   LIG     1     -39.593 -29.987 -11.610  1.00  0.00     0.135 C 
HETATM   17  O   LIG     1     -38.245 -30.012 -10.995  1.00  0.00    -0.192 OA
HETATM   18  C   LIG     1     -39.605 -30.665 -13.189  1.00  0.00     0.085 C 
ENDROOT
BRANCH   2  19
HETATM   19  C   LIG     1     -38.813 -32.706 -18.122  1.00  0.00     0.006 A 
HETATM   20  C   LIG     1     -37.841 -32.306 -18.243  1.00  0.00     0.010 A 
HETATM   21  C   LIG     1     -38.212 -33.572 -18.436  1.00  0.00     0.030 A 
BRANCH  20  22
HETATM   22  C   LIG     1     -36.287 -32.660 -18.622  1.00  0.00     0.087 A 
HETATM   23  C   LIG     1     -35.400 -32.339 -18.719  1.00  0.00     0.244 A 
HETATM   24  O   LIG     1     -34.116 -33.141 -19.279  1.00  0.00    -0.193 OA
HETATM   25  C   LIG     1     -35.974 -31.390 -18.324  1.00  0.00     0.149 A 
HETATM   26  O   LIG     1     -35.154 -31.029 -18.398  1.00  0.00    -0.331 OA
ENDBRANCH  20  22
ENDBRANCH   2  19
BRANCH   1  27
HETATM   27  C   LIG     1     -42.916 -32.647 -19.416  1.00  0.00     0.003 A 
HETATM   28  C   LIG     1     -43.083 -31.627 -19.986  1.00  0.00     0.020 A 
HETATM   29  C   LIG     1     -44.370 -31.018 -20.752  1.00  0.00     0.115 A 
HETATM   30  C   LIG     1     -45.583 -32.121 -20.852  1.00  0.00     0.108 A 
HETATM   31  O   LIG     1     -44.445 -29.575 -21.273  1.00  0.00    -0.194 OA
HETATM   32  C   LIG     1     -45.433 -33.555 -20.204  1.00  0.00     0.115 A 
HETATM   33  O   LIG     1     -46.513 -34.734 -20.245  1.00  0.00    -0.194 OA
HETATM   34  C   LIG     1     -44.102 -33.749 -19.490  1.00  0.00     0.023 A 
ENDBRANCH   1  27
BRANCH  15  35
HETATM   35  C   LIG     1     -40.830 -28.996  -9.328  1.00  0.00    -0.013 A 
HETATM   36  C   LIG     1     -41.364 -27.508  -9.101  1.00  0.00     0.031 A 
HETATM   37  C   LIG     1     -41.338 -26.817  -7.607  1.00  0.00     0.060 A 
HETATM   38  C   LIG     1     -40.778 -27.635  -6.375  1.00  0.00     0.130 A 
HETATM   39  O   LIG     1     -40.735 -26.931  -5.057  1.00  0.00    -0.193 OA
HETATM   40  C   LIG     1     -40.275 -29.168  -6.575  1.00  0.00     0.134 A 
HETATM   41  O   LIG     1     -39.704 -30.033  -5.331  1.00  0.00    -0.193 OA
HETATM   42  C   LIG     1     -40.331 -29.822  -8.058  1.00  0.00     0.080 A 
ENDBRANCH  15  35
TORSDOF 6
ENDMDL
MODEL 18
REMARK VINA RESULT:      -7.4      5.200      6.933
REMARK  6 active torsions:
REMARK  status: ('A' for Active; 'I' for Inactive)
REMARK    1  A    between atoms: C_6  and  C_27 
REMARK    2  A    between atoms: C_7  and  O_9 
REMARK    3  A    between atoms: C_10  and  C_11 
REMARK    4  A    between atoms: C_12  and  C_13 
REMARK    5  A    between atoms: C_16  and  C_18 
REMARK    6  A    between atoms: C_31  and  C_32 
ROOT
HETATM    1  O   LIG     1     -39.988 -30.929 -14.725  1.00  0.00     0.000 OA
HETATM    2  C   LIG     1     -40.330 -30.275 -13.369  1.00  0.00     0.038 A 
HETATM    3  O   LIG     1     -41.523 -29.121 -13.067  1.00  0.00     0.000 OA
HETATM    4  C   LIG     1     -42.412 -28.281 -13.561  1.00  0.00     0.001 A 
HETATM    5  C   LIG     1     -43.452 -27.185 -12.893  1.00  0.00     0.007 A 
HETATM    6  C   LIG     1     -44.359 -26.410 -13.675  1.00  0.00     0.100 A 
HETATM    7  C   LIG     1     -44.338 -26.692 -15.228  1.00  0.00     0.066 A 
HETATM    8  C   LIG     1     -43.333 -27.781 -15.954  1.00  0.00     0.197 A 
HETATM    9  O   LIG     1     -42.924 -28.210 -16.851  1.00  0.00    -0.286 OA
HETATM   10  C   LIG     1     -42.350 -28.516 -14.943  1.00  0.00     0.037 A 
HETATM   11  C   LIG     1     -41.418 -29.597 -15.417  1.00  0.00     0.013 C 
HETATM   12  C   LIG     1     -40.515 -30.026 -13.944  1.00  0.00     0.175 A 
HETATM   13  O   LIG     1     -39.399 -31.175 -14.634  1.00  0.00    -0.219 OA
HETATM   14  O   LIG     1     -45.426 -25.347 -13.140  1.00  0.00    -0.306 OA
HETATM   15  C   LIG     1     -45.344 -25.250 -11.702  1.00  0.00     0.114 C 
HETATM   16  C   LIG     1     -44.362 -25.814 -10.660  1.00  0.00     0.135 C 
HETATM   17  O   LIG     1     -44.362 -25.623  -9.190  1.00  0.00    -0.192 OA
HETATM   18  C   LIG     1     -43.262 -27.036 -11.161  1.00  0.00     0.085 C 
ENDROOT
BRANCH   2  19
HETATM   19  C   LIG     1     -39.473 -30.791 -11.977  1.00  0.00     0.006 A 
HETATM   20  C   LIG     1     -38.662 -30.575 -11.334  1.00  0.00     0.010 A 
HETATM   21  C   LIG     1     -39.494 -31.613 -11.245  1.00  0.00     0.030 A 
BRANCH  20  22
HETATM   22  C   LIG     1     -37.847 -31.061  -9.998  1.00  0.00     0.087 A 
HETATM   23  C   LIG     1     -37.102 -30.924  -9.427  1.00  0.00     0.244 A 
HETATM   24  O   LIG     1     -36.635 -31.832  -8.178  1.00  0.00    -0.193 OA
HETATM   25  C   LIG     1     -37.000 -30.041 -10.200  1.00  0.00     0.149 A 
HETATM   26  O   LIG     1     -36.277 -29.862  -9.696  1.00  0.00    -0.331 OA
ENDBRANCH  20  22
ENDBRANCH   2  19
BRANCH   1  27
HETATM   27  C   LIG     1     -39.972 -31.172 -16.234  1.00  0.00     0.003 A 
HETATM   28  C   LIG     1     -38.866 -31.063 -16.634  1.00  0.00     0.020 A 
HETATM   29  C   LIG     1     -38.255 -31.084 -18.131  1.00  0.00     0.115 A 
HETATM   30  C   LIG     1     -39.401 -31.478 -19.239  1.00  0.00     0.108 A 
HETATM   31  O   LIG     1     -36.796 -30.732 -18.458  1.00  0.00    -0.194 OA
HETATM   32  C   LIG     1     -40.898 -31.737 -18.803  1.00  0.00     0.115 A 
HETATM   33  O   LIG     1     -42.109 -32.154 -19.762  1.00  0.00    -0.194 OA
HETATM   34  C   LIG     1     -41.124 -31.551 -17.309  1.00  0.00     0.023 A 
ENDBRANCH   1  27
BRANCH  15  35
HETATM   35  C   LIG     1     -46.442 -24.023 -11.089  1.00  0.00    -0.013 A 
HETATM   36  C   LIG     1     -47.977 -24.429 -10.907  1.00  0.00     0.031 A 
HETATM   37  C   LIG     1     -49.069 -23.359 -10.296  1.00  0.00     0.060 A 
HETATM   38  C   LIG     1     -48.597 -21.909  -9.881  1.00  0.00     0.130 A 
HETATM   39  O   LIG     1     -49.649 -20.970  -9.383  1.00  0.00    -0.193 OA
HETATM   40  C   LIG     1     -47.031 -21.492 -10.013  1.00  0.00     0.134 A 
HETATM   41  O   LIG     1     -46.517 -20.016  -9.589  1.00  0.00    -0.193 OA
HETATM   42  C   LIG     1     -45.980 -22.577 -10.602  1.00  0.00     0.080 A 
ENDBRANCH  15  35
TORSDOF 6
ENDMDL
MODEL 19
REMARK VINA RESULT:      -7.4      4.497      8.676
REMARK  6 active torsions:
REMARK  status: ('A' for Active; 'I' for Inactive)
REMARK    1  A    between atoms: C_6  and  C_27 
REMARK    2  A    between atoms: C_7  and  O_9 
REMARK    3  A    between atoms: C_10  and  C_11 
REMARK    4  A    between atoms: C_12  and  C_13 
REMARK    5  A    between atoms: C_16  and  C_18 
REMARK    6  A    between atoms: C_31  and  C_32 
ROOT
HETATM    1  O   LIG     1     -41.349 -34.472 -19.092  1.00  0.00     0.000 OA
HETATM    2  C   LIG     1     -40.444 -33.612 -18.185  1.00  0.00     0.038 A 
HETATM    3  O   LIG     1     -40.930 -32.606 -16.921  1.00  0.00     0.000 OA
HETATM    4  C   LIG     1     -41.924 -32.022 -16.280  1.00  0.00     0.001 A 
HETATM    5  C   LIG     1     -42.012 -30.975 -15.005  1.00  0.00     0.007 A 
HETATM    6  C   LIG     1     -43.253 -30.516 -14.471  1.00  0.00     0.100 A 
HETATM    7  C   LIG     1     -44.550 -31.103 -15.152  1.00  0.00     0.066 A 
HETATM    8  C   LIG     1     -44.529 -32.161 -16.418  1.00  0.00     0.197 A 
HETATM    9  O   LIG     1     -45.057 -32.700 -17.185  1.00  0.00    -0.286 OA
HETATM   10  C   LIG     1     -43.066 -32.523 -16.924  1.00  0.00     0.037 A 
HETATM   11  C   LIG     1     -42.853 -33.531 -18.019  1.00  0.00     0.013 C 
HETATM   12  C   LIG     1     -41.087 -33.515 -18.245  1.00  0.00     0.175 A 
HETATM   13  O   LIG     1     -40.976 -34.607 -19.600  1.00  0.00    -0.219 OA
HETATM   14  O   LIG     1     -43.460 -29.532 -13.229  1.00  0.00    -0.306 OA
HETATM   15  C   LIG     1     -42.178 -29.132 -12.699  1.00  0.00     0.114 C 
HETATM   16  C   LIG     1     -40.730 -29.324 -13.182  1.00  0.00     0.135 C 
HETATM   17  O   LIG     1     -39.475 -28.838 -12.561  1.00  0.00    -0.192 OA
HETATM   18  C   LIG     1     -40.440 -30.450 -14.448  1.00  0.00     0.085 C 
ENDROOT
BRANCH   2  19
HETATM   19  C   LIG     1     -38.746 -33.703 -18.407  1.00  0.00     0.006 A 
HETATM   20  C   LIG     1     -37.978 -33.949 -19.090  1.00  0.00     0.010 A 
HETATM   21  C   LIG     1     -37.823 -33.528 -17.835  1.00  0.00     0.030 A 
BRANCH  20  22
HETATM   22  C   LIG     1     -36.356 -34.028 -19.308  1.00  0.00     0.087 A 
HETATM   23  C   LIG     1     -35.642 -34.252 -19.891  1.00  0.00     0.244 A 
HETATM   24  O   LIG     1     -34.062 -34.250 -19.562  1.00  0.00    -0.193 OA
HETATM   25  C   LIG     1     -36.591 -34.447 -20.560  1.00  0.00     0.149 A 
HETATM   26  O   LIG     1     -35.958 -34.676 -21.156  1.00  0.00    -0.331 OA
ENDBRANCH  20  22
ENDBRANCH   2  19
BRANCH   1  27
HETATM   27  C   LIG     1     -42.619 -35.014 -19.748  1.00  0.00     0.003 A 
HETATM   28  C   LIG     1     -42.556 -34.847 -20.915  1.00  0.00     0.020 A 
HETATM   29  C   LIG     1     -43.631 -35.093 -22.098  1.00  0.00     0.115 A 
HETATM   30  C   LIG     1     -44.976 -35.849 -21.536  1.00  0.00     0.108 A 
HETATM   31  O   LIG     1     -43.420 -34.629 -23.547  1.00  0.00    -0.194 OA
HETATM   32  C   LIG     1     -45.128 -36.206 -20.004  1.00  0.00     0.115 A 
HETATM   33  O   LIG     1     -46.361 -36.962 -19.321  1.00  0.00    -0.194 OA
HETATM   34  C   LIG     1     -43.941 -35.750 -19.166  1.00  0.00     0.023 A 
ENDBRANCH   1  27
BRANCH  15  35
HETATM   35  C   LIG     1     -42.370 -27.979 -11.388  1.00  0.00    -0.013 A 
HETATM   36  C   LIG     1     -42.574 -28.561  -9.914  1.00  0.00     0.031 A 
HETATM   37  C   LIG     1     -42.716 -27.556  -8.618  1.00  0.00     0.060 A 
HETATM   38  C   LIG     1     -42.649 -25.990  -8.830  1.00  0.00     0.130 A 
HETATM   39  O   LIG     1     -42.837 -25.134  -7.619  1.00  0.00    -0.193 OA
HETATM   40  C   LIG     1     -42.395 -25.378 -10.315  1.00  0.00     0.134 A 
HETATM   41  O   LIG     1     -42.314 -23.780 -10.561  1.00  0.00    -0.193 OA
HETATM   42  C   LIG     1     -42.241 -26.399 -11.566  1.00  0.00     0.080 A 
ENDBRANCH  15  35
TORSDOF 6
ENDMDL
MODEL 20
REMARK VINA RESULT:      -7.3      4.284      8.716
REMARK  6 active torsions:
REMARK  status: ('A' for Active; 'I' for Inactive)
REMARK    1  A    between atoms: C_6  and  C_27 
REMARK    2  A    between atoms: C_7  and  O_9 
REMARK    3  A    between atoms: C_10  and  C_11 
REMARK    4  A    between atoms: C_12  and  C_13 
REMARK    5  A    between atoms: C_16  and  C_18 
REMARK    6  A    between atoms: C_31  and  C_32 
ROOT
HETATM    1  O   LIG     1     -40.831 -27.763  -9.343  1.00  0.00     0.000 OA
HETATM    2  C   LIG     1     -41.546 -27.176 -10.579  1.00  0.00     0.038 A 
HETATM    3  O   LIG     1     -41.550 -27.802 -12.145  1.00  0.00     0.000 OA
HETATM    4  C   LIG     1     -41.053 -28.678 -12.998  1.00  0.00     0.001 A 
HETATM    5  C   LIG     1     -41.292 -28.982 -14.604  1.00  0.00     0.007 A 
HETATM    6  C   LIG     1     -40.635 -30.045 -15.291  1.00  0.00     0.100 A 
HETATM    7  C   LIG     1     -39.688 -30.949 -14.409  1.00  0.00     0.066 A 
HETATM    8  C   LIG     1     -39.418 -30.706 -12.800  1.00  0.00     0.197 A 
HETATM    9  O   LIG     1     -38.872 -30.945 -11.904  1.00  0.00    -0.286 OA
HETATM   10  C   LIG     1     -40.184 -29.445 -12.206  1.00  0.00     0.037 A 
HETATM   11  C   LIG     1     -40.117 -29.117 -10.741  1.00  0.00     0.013 C 
HETATM   12  C   LIG     1     -41.064 -27.615 -10.619  1.00  0.00     0.175 A 
HETATM   13  O   LIG     1     -40.811 -27.270  -8.928  1.00  0.00    -0.219 OA
HETATM   14  O   LIG     1     -40.809 -30.451 -16.828  1.00  0.00    -0.306 OA
HETATM   15  C   LIG     1     -41.743 -29.555 -17.469  1.00  0.00     0.114 C 
HETATM   16  C   LIG     1     -42.432 -28.253 -17.025  1.00  0.00     0.135 C 
HETATM   17  O   LIG     1     -43.365 -27.393 -17.790  1.00  0.00    -0.192 OA
HETATM   18  C   LIG     1     -42.362 -27.825 -15.362  1.00  0.00     0.085 C 
ENDROOT
BRANCH   2  19
HETATM   19  C   LIG     1     -42.504 -25.769 -10.374  1.00  0.00     0.006 A 
HETATM   20  C   LIG     1     -43.384 -25.381  -9.934  1.00  0.00     0.010 A 
HETATM   21  C   LIG     1     -42.508 -24.714 -10.686  1.00  0.00     0.030 A 
BRANCH  20  22
HETATM   22  C   LIG     1     -44.295 -24.035  -9.729  1.00  0.00     0.087 A 
HETATM   23  C   LIG     1     -45.058 -23.647  -9.321  1.00  0.00     0.244 A 
HETATM   24  O   LIG     1     -45.646 -22.160  -9.542  1.00  0.00    -0.193 OA
HETATM   25  C   LIG     1     -45.064 -24.741  -8.886  1.00  0.00     0.149 A 
HETATM   26  O   LIG     1     -45.799 -24.429  -8.472  1.00  0.00    -0.331 OA
ENDBRANCH  20  22
ENDBRANCH   2  19
BRANCH   1  27
HETATM   27  C   LIG     1     -39.895 -28.640  -8.512  1.00  0.00     0.003 A 
HETATM   28  C   LIG     1     -40.512 -29.162  -7.652  1.00  0.00     0.020 A 
HETATM   29  C   LIG     1     -40.055 -30.087  -6.406  1.00  0.00     0.115 A 
HETATM   30  C   LIG     1     -38.456 -30.452  -6.489  1.00  0.00     0.108 A 
HETATM   31  O   LIG     1     -41.002 -30.519  -5.277  1.00  0.00    -0.194 OA
HETATM   32  C   LIG     1     -37.550 -29.882  -7.652  1.00  0.00     0.115 A 
HETATM   33  O   LIG     1     -35.993 -30.173  -7.874  1.00  0.00    -0.194 OA
HETATM   34  C   LIG     1     -38.312 -28.975  -8.609  1.00  0.00     0.023 A 
ENDBRANCH   1  27
BRANCH  15  35
HETATM   35  C   LIG     1     -41.889 -29.918 -19.182  1.00  0.00    -0.013 A 
HETATM   36  C   LIG     1     -40.580 -29.764 -20.085  1.00  0.00     0.031 A 
HETATM   37  C   LIG     1     -40.611 -30.125 -21.691  1.00  0.00     0.060 A 
HETATM   38  C   LIG     1     -41.954 -30.633 -22.353  1.00  0.00     0.130 A 
HETATM   39  O   LIG     1     -41.928 -30.893 -23.825  1.00  0.00    -0.193 OA
HETATM   40  C   LIG     1     -43.284 -30.842 -21.443  1.00  0.00     0.134 A 
HETATM   41  O   LIG     1     -44.672 -31.367 -22.092  1.00  0.00    -0.193 OA
HETATM   42  C   LIG     1     -43.213 -30.493 -19.860  1.00  0.00     0.080 A 
ENDBRANCH  15  35
TORSDOF 6
ENDMDL
